*SPEF "1481-1998"
*DESIGN "s386"
*DATE "Tue May 16 20:46:12 2023"
*VENDOR "Synopsys, Inc."
*PROGRAM "icc_shell"
*VERSION "Q-2019.12"
*DESIGN_FLOW "PIN_CAP NONE"
*DIVIDER /
*DELIMITER :
*BUS_DELIMITER [ ]
*T_UNIT 1 NS
*C_UNIT 1 FF
*R_UNIT 1 OHM
*L_UNIT 1 HENRY

*NAME_MAP
*1 GND
*2 VDD_
*3 VSS
*4 v5
*5 v4
*6 v3
*7 v2
*8 v1
*9 v0
*10 CK
*11 VDD
*12 v13_D_9
*13 v13_D_8
*14 v13_D_7
*15 v13_D_6
*16 v13_D_12
*17 v13_D_11
*18 v13_D_10
*19 v6
*20 Lv13_D_0
*21 DFF_5/q_reg
*22 U126
*23 DFF_4/q_reg
*24 DFF_3/q_reg
*25 DFF_2/q_reg
*26 DFF_1/q_reg
*27 DFF_0/q_reg
*28 v7
*29 U142
*30 U111
*31 U108
*32 U116
*33 U110
*34 U75
*35 U81
*36 Lv13_D_1
*37 U135
*38 v8
*39 U125
*40 U109
*41 U91
*42 U80
*43 Lv13_D_2
*44 U133
*45 v9
*46 U146
*47 U106
*48 U89
*49 U85
*50 Lv13_D_3
*51 U120
*52 v10
*53 U144
*54 U131
*55 U123
*56 U94
*57 Lv13_D_4
*58 U140
*59 v11
*60 U99
*61 U76
*62 U102
*63 U141
*64 U103
*65 U78
*66 Lv13_D_5
*67 U138
*68 v12
*69 U107
*70 U90
*71 n39
*72 U149
*73 U134
*74 n4
*75 U101
*76 U93
*77 n51
*78 U105
*79 U97
*80 n64
*81 U148
*82 n65
*83 U124
*84 n28
*85 U147
*86 n1
*87 U139
*88 n46
*89 U145
*90 U143
*91 n44
*92 n13
*93 U95
*94 U77
*95 n17
*96 U83
*97 Lv13_D_12
*98 U119
*99 U92
*100 Lv13_D_10
*101 n52
*102 n31
*103 U137
*104 U136
*105 U118
*106 n33
*107 U86
*108 n15
*109 U104
*110 U87
*111 n32
*112 n34
*113 U88
*114 n23
*115 U114
*116 n25
*117 U115
*118 Lv13_D_6
*119 n29
*120 n5
*121 U74
*122 n30
*123 n35
*124 n53
*125 n41
*126 U130
*127 U122
*128 U96
*129 n45
*130 n16
*131 U132
*132 U84
*133 n21
*134 U112
*135 n37
*136 U127
*137 n10
*138 n18
*139 U129
*140 U128
*141 Lv13_D_11
*142 n47
*143 U117
*144 Lv13_D_8
*145 n19
*146 Lv13_D_9
*147 n6
*148 n60
*149 n43
*150 U121
*151 n3
*152 n42
*153 U98
*154 n40
*155 n8
*156 U113
*157 n48
*158 n20
*159 n27
*160 n26
*161 Lv13_D_7
*162 n24
*163 n22
*164 n14
*165 n59
*166 n55
*167 n57
*168 n58
*169 U79
*170 n36
*171 U100
*172 n56
*173 n54
*174 n2
*175 n9
*176 n50
*177 n49
*178 n38
*179 n69
*180 n70
*181 n71

*PORTS
*1 I *L 0.0 *S 0.0 0.0
*2 I *L 0.0 *S 0.0 0.0
*3 I *L 0.0 *S 0.0 0.0
*4 I *L 0.0 *S 0.0 0.0
*5 I *L 0.0 *S 0.0 0.0
*6 I *L 0.0 *S 0.0 0.0
*7 I *L 0.0 *S 0.0 0.0
*8 I *L 0.0 *S 0.0 0.0
*9 I *L 0.0 *S 0.0 0.0
*10 I *L 0.0 *S 0.0 0.0
*11 I *L 0.0 *S 0.0 0.0
*12 O *L 300.0 *S 0.0 0.0
*13 O *L 300.0 *S 0.0 0.0
*14 O *L 300.0 *S 0.0 0.0
*15 O *L 300.0 *S 0.0 0.0
*16 O *L 300.0 *S 0.0 0.0
*17 O *L 300.0 *S 0.0 0.0
*18 O *L 300.0 *S 0.0 0.0
*19 I *L 0.0 *S 0.0 0.0

*D_NET *20 1.237676

*CONN
*I *21:D I *L 496.4084 *C 19.319 10.983
*I *22:Y O *L 0.0 *D OA21X1_RVT *C 17.008 18.036
*N *20:3 *C 17.312 17.16
*N *20:4 *C 17.312 17.16
*N *20:5 *C 17.312 13.816
*N *20:6 *C 17.312 13.816
*N *20:7 *C 18.68 13.816
*N *20:8 *C 18.68 13.816
*N *20:9 *C 18.68 10.928
*N *20:10 *C 18.68 10.928
*N *20:11 *C 17.174 17.892
*N *20:12 *C 17.312 17.891
*N *20:13 *C 19.265 10.928
*N *20:14 *C 17.312 17.114
*N *20:15 *C 18.68 10.974

*CAP
1 *21:D 0.006303324
2 *22:Y 0.01051947
3 *20:3 0.01320662
4 *20:4 0.03638656
5 *20:5 0.01063547
6 *20:6 0.1037883
7 *20:7 0.01063547
8 *20:8 0.0007421151
9 *20:9 0.01260859
10 *20:10 0.08590816
11 *20:11 0.01842921
12 *20:12 0.0442963
13 *20:13 0.09221149
14 *20:14 0.1169949
15 *20:15 0.0133507
16 *20:7 *28:11 0.0120818
17 *20:7 *28:33 0.05100942
18 *20:7 *28:35 0.01545077
19 *20:5 *28:38 0.006621756
20 *20:8 *28:36 0.004765801
21 *20:8 *28:42 0.009740674
22 *20:8 *28:34 0.004974872
23 *20:8 *57:8 0.1166757
24 *20:15 *57:13 0.1166757
25 *20:8 *59:46 0.04571731
26 *20:8 *59:14 0.04571731
27 *20:14 *111:7 0.07466501
28 *20:14 *148:6 0.031404
29 *20:14 *148:14 0.031404
30 *20:7 *165:4 0.02095268
31 *20:5 *165:4 0.02095268
32 *20:8 *108:15 0.05284983

*RES
1 *20:3 *20:4 1.0
2 *20:5 *20:6 0.5
3 *20:7 *20:8 0.5
4 *20:9 *20:10 1.0
5 *22:Y *20:11 0.1133334
6 *20:11 *20:12 0.1129445
7 *20:4 *20:12 1.357572
8 *20:10 *20:13 1.078307
9 *20:13 *21:D 0.152
10 *20:14 *20:3 0.02738096
11 *20:6 *20:14 5.792542
12 *20:9 *20:15 0.02738095
13 *20:15 *20:8 4.979695
14 *20:5 *20:7 2.353679

*END

*D_NET *10 4.276751

*CONN
*I *21:CLK I *L 619.3525 *C 19.592 10.168
*I *23:CLK I *L 619.3525 *C 19.592 20.2
*I *24:CLK I *L 619.3525 *C 7.28 13.512
*I *25:CLK I *L 619.3525 *C 15.64 6.52
*I *26:CLK I *L 619.3525 *C 19.592 6.52
*I *27:CLK I *L 619.3525 *C 11.536 20.2
*P *10 I *C 18.376 0.028
*N *10:8 *C 18.376 0.136
*N *10:9 *C 18.376 0.136
*N *10:10 *C 18.528 0.136
*N *10:11 *C 18.528 0.136
*N *10:12 *C 19.592 10.168
*N *10:13 *C 19.592 10.168
*N *10:14 *C 19.44 10.168
*N *10:15 *C 19.44 10.168
*N *10:16 *C 19.592 20.2
*N *10:17 *C 19.592 20.2
*N *10:18 *C 19.44 20.2
*N *10:19 *C 19.44 20.2
*N *10:20 *C 19.44 6.216
*N *10:21 *C 19.44 6.216
*N *10:22 *C 7.28 13.512
*N *10:23 *C 7.28 13.512
*N *10:24 *C 7.28 13.512
*N *10:25 *C 7.28 13.512
*N *10:26 *C 19.44 13.512
*N *10:27 *C 19.44 13.512
*N *10:28 *C 19.592 6.52
*N *10:29 *C 19.592 6.52
*N *10:30 *C 18.528 6.216
*N *10:31 *C 18.528 6.216
*N *10:32 *C 15.64 6.52
*N *10:33 *C 15.64 6.52
*N *10:34 *C 15.792 6.52
*N *10:35 *C 15.792 6.52
*N *10:36 *C 15.792 6.216
*N *10:37 *C 15.792 6.216
*N *10:38 *C 11.536 20.2
*N *10:39 *C 11.536 20.2
*N *10:40 *C 11.536 20.2
*N *10:41 *C 11.536 20.2
*N *10:42 *C 19.44 20.2
*N *10:43 *C 18.528 6.216
*N *10:44 *C 18.528 6.52

*CAP
1 *21:CLK 0.0
2 *23:CLK 0.0
3 *24:CLK 0.0
4 *25:CLK 0.0
5 *26:CLK 0.0
6 *27:CLK 0.0
7 *10 0.02134414
8 *10:8 0.01429652
9 *10:9 0.02134414
10 *10:10 0.252515
11 *10:11 0.01429652
12 *10:12 0.01643926
13 *10:13 0.03355625
14 *10:14 0.3001192
15 *10:15 0.01711699
16 *10:16 0.02007706
17 *10:17 0.03420372
18 *10:18 0.2771461
19 *10:19 0.01412666
20 *10:20 0.04017848
21 *10:21 0.1632839
22 *10:22 0.02181161
23 *10:23 0.03755472
24 *10:24 0.02998656
25 *10:25 0.5062921
26 *10:26 0.4920486
27 *10:27 0.4139814
28 *10:28 0.01511892
29 *10:29 0.06770357
30 *10:30 0.252515
31 *10:31 0.0196131
32 *10:32 0.01731341
33 *10:33 0.03335847
34 *10:34 0.01992533
35 *10:35 0.01604506
36 *10:36 0.1119302
37 *10:37 0.01992533
38 *10:38 0.01925662
39 *10:39 0.03350032
40 *10:40 0.02850439
41 *10:41 0.3351377
42 *10:42 0.320877
43 *10:43 0.1521087
44 *10:44 0.07219775

*RES
1 *10:8 *10:9 0.5
2 *10:10 *10:11 0.5
3 *10:12 *21:CLK 1.0
4 *10:13 *10:12 0.5
5 *10:14 *10:15 0.5
6 *10:16 *23:CLK 1.0
7 *10:17 *10:16 0.5
8 *10:18 *10:19 0.5
9 *10:20 *10:21 0.5
10 *10:22 *24:CLK 1.0
11 *10:23 *10:22 0.5
12 *10:24 *10:23 0.5
13 *10:25 *10:24 0.5
14 *10:26 *10:27 0.5
15 *10:28 *26:CLK 1.0
16 *10:29 *10:28 0.5
17 *10:30 *10:31 0.5
18 *10:32 *25:CLK 1.0
19 *10:33 *10:32 0.5
20 *10:34 *10:35 0.5
21 *10:36 *10:37 0.5
22 *10:38 *27:CLK 1.0
23 *10:39 *10:38 0.5
24 *10:40 *10:39 0.5
25 *10:41 *10:40 0.5
26 *10:42 *10:18 0.5
27 *10:43 *10:30 0.5
28 *10 *10:9 0.1043326
29 *10:33 *10:35 0.2068502
30 *10:8 *10:11 0.2068502
31 *10:31 *10:44 0.4579409
32 *10:44 *10:29 1.807237
33 *10:15 *10:13 0.2068502
34 *10:19 *10:17 0.2068502
35 *10:37 *10:34 0.4781764
36 *10:10 *10:30 10.7598
37 *10:21 *10:14 6.959876
38 *10:14 *10:27 5.873076
39 *10:27 *10:18 11.84449
40 *10:25 *10:26 21.61563
41 *10:41 *10:42 14.01634
42 *10:36 *10:43 4.789614
43 *10:43 *10:20 1.539422

*END

*D_NET *28 2.828103

*CONN
*I *21:Q O *L 0.0 *D DFFX1_RVT *C 22.632 10.624
*I *29:A1 I *L 450.5898 *C 19.594 12.792
*I *30:A1 I *L 450.5898 *C 20.504 12.752
*I *31:A3 I *L 481.0668 *C 21.72 15.184
*I *32:A1 I *L 526.317 *C 18.832 14.08
*I *33:A3 I *L 492.0692 *C 18.376 12.79
*I *34:A2 I *L 431.813 *C 22.176 19.866
*I *35:A I *L 518.4735 *C 17.008 14.272
*N *28:9 *C 19.744 12.716
*N *28:10 *C 19.744 12.716
*N *28:11 *C 19.744 14.12
*N *28:12 *C 19.744 14.12
*N *28:13 *C 21.72 15.032
*N *28:14 *C 21.72 15.032
*N *28:15 *C 21.72 15.184
*N *28:16 *C 20.808 15.032
*N *28:17 *C 20.808 15.032
*N *28:18 *C 20.808 19.592
*N *28:19 *C 20.808 19.592
*N *28:20 *C 22.176 19.592
*N *28:21 *C 22.176 19.592
*N *28:22 *C 22.176 19.866
*N *28:23 *C 20.504 12.752
*N *28:24 *C 20.504 14.12
*N *28:25 *C 20.504 14.12
*N *28:26 *C 22.632 15.032
*N *28:27 *C 22.632 15.032
*N *28:28 *C 22.632 10.624
*N *28:29 *C 18.984 14.12
*N *28:30 *C 18.984 14.12
*N *28:31 *C 18.984 15.032
*N *28:32 *C 18.984 15.032
*N *28:33 *C 18.984 14.12
*N *28:34 *C 18.376 12.79
*N *28:35 *C 18.376 14.12
*N *28:36 *C 18.376 14.12
*N *28:37 *C 17.008 14.272
*N *28:38 *C 16.856 14.12
*N *28:39 *C 16.856 14.12
*N *28:40 *C 16.856 14.272
*N *28:41 *C 16.961 14.272
*N *28:42 *C 18.376 12.836
*N *28:43 *C 19.744 12.762
*N *28:44 *C 22.176 19.82
*N *28:45 *C 22.632 10.67

*CAP
1 *21:Q 0.0
2 *29:A1 0.04375948
3 *30:A1 0.0
4 *31:A3 0.0
5 *32:A1 0.03414546
6 *33:A3 0.0
7 *34:A2 0.0
8 *35:A 0.0
9 *28:9 0.007744028
10 *28:10 0.04375948
11 *28:11 0.05362006
12 *28:12 0.07000109
13 *28:13 0.08463602
14 *28:14 0.02329876
15 *28:15 0.02329876
16 *28:16 0.038577
17 *28:17 0.2131795
18 *28:18 0.07977922
19 *28:19 0.2131795
20 *28:20 0.07977922
21 *28:21 0.02104799
22 *28:22 0.0117499
23 *28:23 0.05477409
24 *28:24 0.03787537
25 *28:25 0.05477409
26 *28:26 0.04710782
27 *28:27 0.1916634
28 *28:28 0.01018154
29 *28:29 0.0730985
30 *28:30 0.03414546
31 *28:31 0.001048796
32 *28:32 0.0730985
33 *28:33 0.03638361
34 *28:34 0.00778701
35 *28:35 0.08855194
36 *28:36 0.07393645
37 *28:37 0.006314443
38 *28:38 0.06791304
39 *28:39 0.04055521
40 *28:40 0.04502182
41 *28:41 0.01078105
42 *28:42 0.08172346
43 *28:43 0.0777451
44 *28:44 0.03279789
45 *28:45 0.2018449
46 *28:11 *20:7 0.0120818
47 *28:33 *20:7 0.05100942
48 *28:35 *20:7 0.01545077
49 *28:38 *20:5 0.006621756
50 *28:36 *20:8 0.004765801
51 *28:42 *20:8 0.009740674
52 *28:34 *20:8 0.004974872
53 *28:19 *106:16 0.03847408
54 *28:19 *106:15 0.03847408
55 *28:16 *108:10 0.1767236
56 *28:27 *108:21 1e-07
57 *28:27 *108:22 1e-07
58 *28:25 *108:19 0.03912143
59 *28:12 *165:7 0.001210273
60 *28:43 *165:11 0.03151177
61 *28:9 *165:11 0.005633291
62 *28:42 *165:10 0.0008150662
63 *28:42 *165:3 0.0008150662

*RES
1 *28:9 *28:10 1.0
2 *28:11 *28:12 0.5
3 *28:13 *28:14 0.5
4 *28:15 *31:A3 1.0
5 *28:16 *28:17 0.5
6 *28:18 *28:19 0.5
7 *28:20 *28:21 0.5
8 *28:22 *34:A2 1.0
9 *28:23 *30:A1 1.0
10 *28:24 *28:25 0.5
11 *28:26 *28:27 0.5
12 *28:28 *21:Q 1.0
13 *28:29 *28:30 1.0
14 *28:31 *28:32 0.5
15 *28:33 *28:29 0.25
16 *28:34 *33:A3 1.0
17 *28:35 *28:36 0.5
18 *28:37 *35:A 1.0
19 *28:38 *28:39 0.5
20 *32:A1 *28:30 0.1317647
21 *29:A1 *28:10 0.2014493
22 *28:39 *28:40 0.2032671
23 *28:40 *28:41 0.1085526
24 *28:41 *28:37 0.01424243
25 *28:34 *28:42 0.02738095
26 *28:42 *28:36 2.202689
27 *28:29 *28:32 1.54397
28 *28:9 *28:43 0.02738095
29 *28:43 *28:12 2.328892
30 *28:23 *28:25 2.341298
31 *28:17 *28:19 8.044603
32 *28:14 *28:15 0.2088889
33 *28:44 *28:22 0.02738096
34 *28:21 *28:44 0.3173791
35 *28:28 *28:45 0.02738095
36 *28:45 *28:27 7.690532
37 *28:38 *28:35 2.621091
38 *28:35 *28:33 0.9941481
39 *28:33 *28:11 1.264006
40 *28:11 *28:24 1.260451
41 *28:31 *28:16 3.162879
42 *28:16 *28:13 1.534357
43 *28:13 *28:26 1.531343
44 *28:18 *28:20 2.342564

*END

*D_NET *36 1.685915

*CONN
*I *23:D I *L 496.4084 *C 19.319 21.015
*I *37:Y O *L 0.0 *D AND2X1_RVT *C 19.592 7.11
*N *36:3 *C 20.2 7.736
*N *36:4 *C 20.2 7.736
*N *36:5 *C 20.2 13.816
*N *36:6 *C 20.2 13.816
*N *36:7 *C 19.288 13.816
*N *36:8 *C 19.288 13.816
*N *36:9 *C 19.136 20.2
*N *36:10 *C 19.136 20.2
*N *36:11 *C 19.136 21.039
*N *36:12 *C 19.799 7.734
*N *36:13 *C 19.136 20.154
*N *36:14 *C 19.136 18.376
*N *36:15 *C 19.288 18.376
*N *36:16 *C 20.2 7.782

*CAP
1 *23:D 0.008310096
2 *37:Y 0.05755482
3 *36:3 0.01019051
4 *36:4 0.05074517
5 *36:5 0.03118961
6 *36:6 0.2828504
7 *36:7 0.03118961
8 *36:8 0.1384224
9 *36:9 0.01018983
10 *36:10 0.05140249
11 *36:11 0.05971259
12 *36:12 0.006809656
13 *36:13 0.08417529
14 *36:14 0.08233598
15 *36:15 0.146773
16 *36:16 0.2930409
17 *36:5 *165:6 0.02186134
18 *36:7 *165:6 0.02186134
19 *36:15 *179:39 0.1486501
20 *36:8 *179:20 0.1486501

*RES
1 *36:3 *36:4 1.0
2 *36:5 *36:6 0.5
3 *36:7 *36:8 0.5
4 *36:9 *36:10 1.0
5 *36:10 *36:11 1.585088
6 *36:11 *23:D 0.1189899
7 *36:12 *37:Y 0.09594595
8 *37:Y *36:4 0.4635295
9 *36:13 *36:9 0.02738095
10 *36:14 *36:13 3.079511
11 *36:14 *36:15 0.1983517
12 *36:8 *36:15 8.044645
13 *36:3 *36:16 0.02738095
14 *36:16 *36:6 10.67727
15 *36:7 *36:5 1.54397

*END

*D_NET *38 1.855133

*CONN
*I *23:Q O *L 0.0 *D DFFX1_RVT *C 22.632 20.656
*I *39:A1 I *L 503.5117 *C 16.577 20.96
*I *40:A1 I *L 450.5898 *C 20.653 17.324
*I *41:A3 I *L 412.1762 *C 20.352 14.231
*I *42:A I *L 688.1503 *C 18.374 17.613
*N *38:6 *C 16.577 20.96
*N *38:7 *C 16.856 18.072
*N *38:8 *C 16.856 18.072
*N *38:9 *C 18.68 17.616
*N *38:10 *C 18.68 17.616
*N *38:11 *C 18.68 18.072
*N *38:12 *C 18.68 18.072
*N *38:13 *C 20.352 18.072
*N *38:14 *C 20.352 18.072
*N *38:15 *C 20.504 14.272
*N *38:16 *C 20.504 14.272
*N *38:17 *C 20.352 17.16
*N *38:18 *C 20.352 17.16
*N *38:19 *C 22.632 18.072
*N *38:20 *C 22.632 18.072
*N *38:21 *C 22.632 20.656
*N *38:22 *C 18.374 17.616
*N *38:23 *C 20.367 17.289
*N *38:24 *C 16.623 20.96
*N *38:25 *C 16.856 20.96
*N *38:26 *C 18.68 17.662
*N *38:27 *C 20.352 17.114
*N *38:28 *C 20.352 17.206
*N *38:29 *C 20.352 16.248
*N *38:30 *C 20.504 16.248
*N *38:31 *C 20.504 14.318
*N *38:32 *C 22.632 20.61

*CAP
1 *23:Q 0.0
2 *39:A1 0.0
3 *40:A1 0.02680961
4 *41:A3 0.02183461
5 *42:A 0.01047672
6 *38:6 0.01227147
7 *38:7 0.02446551
8 *38:8 0.1450877
9 *38:9 0.01065364
10 *38:10 0.03160727
11 *38:11 0.09831902
12 *38:12 0.02301335
13 *38:13 0.1771344
14 *38:14 0.01965749
15 *38:15 0.01270156
16 *38:16 0.02183461
17 *38:17 0.01525127
18 *38:18 0.01063379
19 *38:19 0.1032809
20 *38:20 0.09925785
21 *38:21 0.009841153
22 *38:22 0.04208399
23 *38:23 0.0374434
24 *38:24 0.02707436
25 *38:25 0.1598906
26 *38:26 0.03366699
27 *38:27 0.01347881
28 *38:28 0.03123786
29 *38:29 0.02344268
30 *38:30 0.1001552
31 *38:31 0.09922204
32 *38:32 0.109099
33 *38:11 *160:7 0.1176344
34 *38:20 *7:13 0.03072743
35 *38:32 *7:6 0.0006414531
36 *38:21 *7:30 0.00113578
37 *38:32 *7:30 0.02510445
38 *38:30 *7:29 0.001831627
39 *38:30 *7:27 0.00767168
40 *38:30 *7:16 0.0002061378
41 *38:14 *7:29 0.01145765
42 *38:28 *7:28 0.05059412
43 *38:14 *7:26 0.0001382256
44 *38:27 *7:28 0.02853155
45 *38:29 *7:27 0.02853155

*RES
1 *38:6 *39:A1 1.0
2 *38:7 *38:8 0.5
3 *38:9 *38:10 1.0
4 *38:11 *38:12 0.5
5 *38:13 *38:14 0.5
6 *38:15 *38:16 1.0
7 *38:17 *38:18 1.0
8 *38:19 *38:20 0.5
9 *38:21 *23:Q 1.0
10 *38:22 *42:A 0.001435355
11 *38:22 *38:10 0.4259341
12 *41:A3 *38:16 0.1787727
13 *38:18 *38:23 0.15675
14 *38:23 *40:A1 0.36875
15 *38:6 *38:24 0.02738095
16 *38:24 *38:25 0.3487304
17 *38:8 *38:25 5.059937
18 *38:9 *38:26 0.02738095
19 *38:26 *38:12 0.6575974
20 *38:27 *38:17 0.05476191
21 *38:17 *38:28 0.05476191
22 *38:29 *38:30 0.2138528
23 *38:29 *38:27 1.449561
24 *38:28 *38:14 1.460345
25 *38:15 *38:31 0.02738095
26 *38:31 *38:30 3.349298
27 *38:32 *38:21 0.02738095
28 *38:20 *38:32 4.433157
29 *38:7 *38:11 3.16288
30 *38:11 *38:13 2.888955
31 *38:13 *38:19 3.972556

*END

*D_NET *43 0.5734222

*CONN
*I *24:D I *L 496.4084 *C 7.007 14.327
*I *44:Y O *L 0.0 *D NAND3X0_RVT *C 6.976 13.033
*N *43:3 *C 7.28 12.752
*N *43:4 *C 7.28 12.752
*N *43:5 *C 7.28 12.296
*N *43:6 *C 7.28 12.296
*N *43:7 *C 6.368 12.296
*N *43:8 *C 6.368 12.296
*N *43:9 *C 6.368 14.272
*N *43:10 *C 6.368 14.272
*N *43:11 *C 6.953 14.272
*N *43:12 *C 7.258 12.627
*N *43:13 *C 6.368 14.226
*N *43:14 *C 7.28 12.706

*CAP
1 *24:D 0.005491883
2 *44:Y 0.008877969
3 *43:3 0.01482803
4 *43:4 0.00837918
5 *43:5 0.04516311
6 *43:6 0.01225353
7 *43:7 0.04516311
8 *43:8 0.07250771
9 *43:9 0.01007845
10 *43:10 0.06219882
11 *43:11 0.0676907
12 *43:12 0.01725715
13 *43:13 0.08258615
14 *43:14 0.02708156
15 *43:8 *129:9 0.05533321
16 *43:14 *19:10 0.01926582
17 *43:6 *19:10 0.01926582

*RES
1 *43:3 *43:4 1.0
2 *43:5 *43:6 0.5
3 *43:7 *43:8 0.5
4 *43:9 *43:10 1.0
5 *43:10 *43:11 1.078307
6 *43:11 *24:D 0.152
7 *44:Y *43:12 0.2236364
8 *43:12 *43:4 0.1009375
9 *43:13 *43:9 0.02738095
10 *43:8 *43:13 3.351867
11 *43:14 *43:3 0.02738095
12 *43:6 *43:14 0.6534481
13 *43:7 *43:5 1.54397

*END

*D_NET *45 1.667685

*CONN
*I *24:Q O *L 0.0 *D DFFX1_RVT *C 10.32 13.948
*I *46:A1 I *L 526.317 *C 9.838 12.6
*I *47:A2 I *L 499.5953 *C 10.028 9.816
*I *48:A I *L 688.1503 *C 12.297 5.762
*I *49:A2 I *L 519.0556 *C 12.461 7.922
*N *45:6 *C 10.32 13.948
*N *45:7 *C 10.32 12.904
*N *45:8 *C 10.32 12.904
*N *45:9 *C 9.838 12.6
*N *45:10 *C 9.838 12.904
*N *45:11 *C 9.838 12.904
*N *45:12 *C 11.992 8.04
*N *45:13 *C 11.992 8.04
*N *45:14 *C 11.992 5.76
*N *45:15 *C 11.992 5.76
*N *45:16 *C 10.016 9.712
*N *45:17 *C 10.016 9.712
*N *45:18 *C 10.016 8.648
*N *45:19 *C 10.016 8.648
*N *45:20 *C 9.712 12.296
*N *45:21 *C 9.712 12.296
*N *45:22 *C 9.712 8.648
*N *45:23 *C 9.712 8.648
*N *45:24 *C 11.992 8.648
*N *45:25 *C 11.992 8.648
*N *45:26 *C 12.145 5.79
*N *45:27 *C 12.007 7.914
*N *45:28 *C 10.016 9.666
*N *45:29 *C 10.32 13.902
*N *45:30 *C 11.992 5.806
*N *45:31 *C 11.992 7.887
*N *45:32 *C 11.992 8.086
*N *45:33 *C 9.712 12.904

*CAP
1 *24:Q 0.0
2 *46:A1 0.0
3 *47:A2 0.01232801
4 *48:A 0.03206931
5 *49:A2 0.02413676
6 *45:6 0.01449798
7 *45:7 0.02916225
8 *45:8 0.0570186
9 *45:9 0.0294039
10 *45:10 0.03410836
11 *45:11 0.0294039
12 *45:12 0.007811842
13 *45:13 0.01032627
14 *45:14 1e-10
15 *45:15 0.01755183
16 *45:16 0.01549515
17 *45:17 0.01232801
18 *45:18 0.05393529
19 *45:19 0.01133458
20 *45:20 0.156635
21 *45:21 0.03745657
22 *45:22 0.156635
23 *45:23 0.01937894
24 *45:24 0.03455634
25 *45:25 1.396984e-09
26 *45:26 0.04962113
27 *45:27 0.03446304
28 *45:28 0.02682973
29 *45:29 0.0715166
30 *45:30 0.1060503
31 *45:31 0.1107075
32 *45:32 0.003154648
33 *45:33 0.04240268
34 *45:32 *52:31 0.08148549
35 *45:30 *52:30 0.02437894
36 *45:31 *52:30 0.01263787
37 *45:11 *52:25 0.0004856609
38 *45:9 *52:25 0.0004856609
39 *45:28 *80:7 0.06495244
40 *45:19 *80:13 0.06495244
41 *45:32 *137:18 0.00926922
42 *45:31 *137:18 0.01025419
43 *45:30 *137:19 0.02061595
44 *45:14 *137:19 0.01288934
45 *45:18 *164:9 0.124958

*RES
1 *45:6 *24:Q 1.0
2 *45:7 *45:8 0.5
3 *45:9 *46:A1 1.0
4 *45:10 *45:11 0.5
5 *45:12 *45:13 1.0
6 *45:14 *45:15 1.0
7 *45:16 *45:17 1.0
8 *45:18 *45:19 0.5
9 *45:20 *45:21 0.5
10 *45:22 *45:23 0.5
11 *45:24 *45:25 0.5
12 *45:17 *47:A2 0.1482
13 *45:15 *45:26 0.05
14 *45:26 *48:A 0.6707
15 *45:27 *45:13 0.149625
16 *45:27 *49:A2 0.6224139
17 *45:9 *45:11 0.4354367
18 *45:28 *45:16 0.02738095
19 *45:19 *45:28 1.720348
20 *45:29 *45:6 0.02738095
21 *45:8 *45:29 1.692152
22 *45:14 *45:30 0.02738096
23 *45:31 *45:12 0.1917769
24 *45:12 *45:32 0.05476191
25 *45:30 *45:31 3.618692
26 *45:32 *45:25 0.9235145
27 *45:23 *45:18 0.4696042
28 *45:18 *45:24 3.43389
29 *45:21 *45:33 0.9938715
30 *45:33 *45:10 0.1431818
31 *45:10 *45:7 0.7794328
32 *45:22 *45:20 6.418638

*END

*D_NET *50 0.7246656

*CONN
*I *25:D I *L 496.4084 *C 15.367 5.705
*I *51:Y O *L 0.0 *D AO21X1_RVT *C 9.712 5.288
*N *50:3 *C 10.168 6.216
*N *50:4 *C 10.168 6.216
*N *50:5 *C 10.168 5.912
*N *50:6 *C 10.168 5.912
*N *50:7 *C 14.88 5.912
*N *50:8 *C 14.88 5.912
*N *50:9 *C 14.88 5.608
*N *50:10 *C 14.88 5.608
*N *50:11 *C 15.108 5.578
*N *50:12 *C 10.168 6.17
*N *50:13 *C 14.88 5.654

*CAP
1 *25:D 0.03400035
2 *51:Y 0.04959507
3 *50:3 0.01079013
4 *50:4 0.04959507
5 *50:5 0.1657703
6 *50:6 0.01573187
7 *50:7 0.1657703
8 *50:8 0.01656398
9 *50:9 0.01053772
10 *50:10 0.01938278
11 *50:11 0.05338313
12 *50:12 0.026522
13 *50:13 0.02710169
14 *50:7 *74:5 0.06366082
15 *50:7 *74:13 0.01626027

*RES
1 *50:3 *50:4 1.0
2 *50:5 *50:6 0.5
3 *50:7 *50:8 0.5
4 *50:9 *50:10 1.0
5 *51:Y *50:4 0.4882354
6 *50:10 *50:11 0.05
7 *50:11 *25:D 0.9576
8 *50:12 *50:3 0.02738095
9 *50:6 *50:12 0.3907956
10 *50:9 *50:13 0.02738095
11 *50:13 *50:8 0.3958902
12 *50:5 *50:7 8.31769

*END

*D_NET *52 2.570388

*CONN
*I *25:Q O *L 0.0 *D DFFX1_RVT *C 18.68 6.088
*I *53:A3 I *L 393.9097 *C 9.689 16.096
*I *54:A1 I *L 543.9185 *C 10.951 7.432
*I *55:A1 I *L 503.5117 *C 8.669 10.928
*I *56:A I *L 688.1503 *C 11.84 9.066
*I *49:A1 I *L 496.1498 *C 12.372 7.69
*N *52:7 *C 18.68 6.088
*N *52:8 *C 18.68 6.824
*N *52:9 *C 18.68 6.824
*N *52:10 *C 11.84 6.824
*N *52:11 *C 11.84 6.824
*N *52:12 *C 10.951 7.432
*N *52:13 *C 10.776 7.432
*N *52:14 *C 10.776 7.432
*N *52:15 *C 9.408 7.432
*N *52:16 *C 9.408 7.432
*N *52:17 *C 11.84 9.066
*N *52:18 *C 11.842 7.432
*N *52:19 *C 11.842 7.432
*N *52:20 *C 8.669 10.928
*N *52:21 *C 11.84 7.432
*N *52:22 *C 9.689 16.096
*N *52:23 *C 11.84 7.632
*N *52:24 *C 8.715 10.928
*N *52:25 *C 9.408 10.928
*N *52:26 *C 9.408 15.944
*N *52:27 *C 9.56 15.944
*N *52:28 *C 9.56 16.096
*N *52:29 *C 9.643 16.096
*N *52:30 *C 11.841 7.242
*N *52:31 *C 11.841 7.493
*N *52:32 *C 11.84 9.02
*N *52:33 *C 18.68 6.134

*CAP
1 *25:Q 0.0
2 *53:A3 0.0
3 *54:A1 0.0
4 *55:A1 0.0
5 *56:A 0.0
6 *49:A1 0.03295368
7 *52:7 0.01042501
8 *52:8 0.2623218
9 *52:9 0.03848651
10 *52:10 0.2623218
11 *52:11 0.01960753
12 *52:12 0.02124914
13 *52:13 0.1039679
14 *52:14 0.02124914
15 *52:15 0.05060403
16 *52:16 0.1696531
17 *52:17 0.01268076
18 *52:18 0.05336391
19 *52:19 0.04553154
20 *52:20 0.01255432
21 *52:21 0.01451482
22 *52:22 0.01039222
23 *52:23 0.0474685
24 *52:24 0.05587456
25 *52:25 0.3349563
26 *52:26 0.1284502
27 *52:27 0.01303476
28 *52:28 0.008934272
29 *52:29 0.01275898
30 *52:30 0.03438672
31 *52:31 0.0972906
32 *52:32 0.07921901
33 *52:33 0.04891152
34 *52:31 *45:32 0.08148549
35 *52:30 *45:30 0.02437894
36 *52:30 *45:31 0.01263787
37 *52:25 *45:11 0.0004856609
38 *52:25 *45:9 0.0004856609
39 *52:10 *71:7 0.04364993
40 *52:10 *71:9 0.04364993
41 *52:15 *80:12 0.02553335
42 *52:25 *80:22 0.03785181
43 *52:25 *80:9 0.03785181
44 *52:25 *80:7 0.01910876
45 *52:16 *80:13 0.01910876
46 *52:26 *92:9 0.01958564
47 *52:25 *92:18 0.01958564
48 *52:25 *92:17 0.09091269
49 *52:25 *92:16 0.09091269

*RES
1 *52:7 *25:Q 1.0
2 *52:8 *52:9 0.5
3 *52:10 *52:11 0.5
4 *52:12 *54:A1 1.0
5 *52:13 *52:14 0.5
6 *52:15 *52:16 0.5
7 *52:17 *56:A 1.0
8 *52:18 *52:19 0.25
9 *52:20 *55:A1 1.0
10 *52:19 *52:21 1.0
11 *52:22 *53:A3 1.0
12 *52:21 *52:23 0.3239544
13 *52:23 *49:A1 0.3989796
14 *52:20 *52:24 0.02738096
15 *52:24 *52:25 1.15152
16 *52:16 *52:25 6.145176
17 *52:25 *52:26 8.858248
18 *52:26 *52:27 0.1983517
19 *52:27 *52:28 0.1983517
20 *52:28 *52:29 0.07477479
21 *52:29 *52:22 0.02555555
22 *52:14 *52:12 0.2409421
23 *52:30 *52:19 0.3125807
24 *52:19 *52:31 0.09500001
25 *52:32 *52:17 0.02738096
26 *52:11 *52:30 0.6678572
27 *52:31 *52:32 2.751786
28 *52:7 *52:33 0.02738095
29 *52:33 *52:9 1.139525
30 *52:15 *52:13 2.350363
31 *52:13 *52:18 1.803665
32 *52:10 *52:8 12.11423

*END

*D_NET *57 1.906111

*CONN
*I *26:D I *L 496.4084 *C 19.319 5.705
*I *58:Y O *L 0.0 *D AO22X1_RVT *C 14.728 15.323
*N *57:3 *C 14.88 16.248
*N *57:4 *C 14.88 16.248
*N *57:5 *C 14.88 15.032
*N *57:6 *C 14.88 15.032
*N *57:7 *C 18.832 15.032
*N *57:8 *C 18.832 15.032
*N *57:9 *C 19.136 5.608
*N *57:10 *C 19.136 5.608
*N *57:11 *C 14.804 16.248
*N *57:12 *C 14.88 16.202
*N *57:13 *C 18.832 9.408
*N *57:14 *C 19.136 9.408
*N *57:15 *C 19.136 5.654

*CAP
1 *26:D 0.02051001
2 *58:Y 0.006765448
3 *57:3 0.0159317
4 *57:4 0.03000581
5 *57:5 0.1882754
6 *57:6 0.08935963
7 *57:7 0.1882754
8 *57:8 0.1466238
9 *57:9 0.01042588
10 *57:10 0.02051001
11 *57:11 0.03677126
12 *57:12 0.1052913
13 *57:13 0.1664672
14 *57:14 0.1771607
15 *57:15 0.1677432
16 *57:8 *20:8 0.1166757
17 *57:13 *20:15 0.1166757
18 *57:8 *59:31 0.1361662
19 *57:13 *59:29 0.1361662
20 *57:14 *124:10 0.01515533
21 *57:14 *124:9 0.01515533

*RES
1 *57:3 *57:4 1.0
2 *57:5 *57:6 0.5
3 *57:7 *57:8 0.5
4 *57:9 *57:10 1.0
5 *58:Y *57:11 0.1447369
6 *57:11 *57:4 0.03226891
7 *57:10 *26:D 0.2352941
8 *57:12 *57:3 0.02738096
9 *57:6 *57:12 1.99146
10 *57:13 *57:14 0.4697802
11 *57:13 *57:8 9.942822
12 *57:9 *57:15 0.02738095
13 *57:15 *57:14 6.605068
14 *57:5 *57:7 6.957042

*END

*D_NET *59 3.382962

*CONN
*I *26:Q O *L 0.0 *D DFFX1_RVT *C 22.632 6.091
*I *29:A2 I *L 405.9669 *C 19.741 12.42
*I *60:A1 I *L 503.5117 *C 14.9 12.448
*I *61:A3 I *L 391.832 *C 16.248 15.944
*I *62:A1 I *L 481.3457 *C 16.898 9.157
*I *63:A2 I *L 511.8402 *C 18.703 15.944
*I *64:A3 I *L 492.0692 *C 21.291 9.408
*I *65:A I *L 518.4735 *C 17.766 14.259
*N *59:9 *C 22.632 6.091
*N *59:10 *C 14.9 12.448
*N *59:11 *C 15.032 12.904
*N *59:12 *C 15.032 12.904
*N *59:13 *C 18.528 12.904
*N *59:14 *C 18.528 12.904
*N *59:15 *C 18.68 15.944
*N *59:16 *C 18.68 15.944
*N *59:17 *C 16.248 15.944
*N *59:18 *C 16.248 15.944
*N *59:19 *C 18.68 16.4
*N *59:20 *C 18.68 16.4
*N *59:21 *C 21.416 9.56
*N *59:22 *C 21.416 9.56
*N *59:23 *C 21.291 9.408
*N *59:24 *C 20.048 12.448
*N *59:25 *C 20.048 12.448
*N *59:26 *C 20.048 12.904
*N *59:27 *C 20.048 12.904
*N *59:28 *C 18.984 9.56
*N *59:29 *C 18.984 9.56
*N *59:30 *C 18.984 12.904
*N *59:31 *C 18.984 12.904
*N *59:32 *C 16.704 9.56
*N *59:33 *C 16.704 9.56
*N *59:34 *C 16.704 9.104
*N *59:35 *C 16.704 9.104
*N *59:36 *C 18.072 14.272
*N *59:37 *C 18.072 14.272
*N *59:38 *C 16.271 15.879
*N *59:39 *C 20.078 12.46
*N *59:40 *C 14.96 12.448
*N *59:41 *C 14.974 12.6
*N *59:42 *C 15.032 12.449
*N *59:43 *C 16.704 9.15
*N *59:44 *C 18.119 14.272
*N *59:45 *C 18.528 14.272
*N *59:46 *C 18.528 14.12
*N *59:47 *C 18.68 14.12
*N *59:48 *C 18.68 16.354
*N *59:49 *C 20.048 12.494
*N *59:50 *C 21.351 9.408
*N *59:51 *C 21.416 9.409
*N *59:52 *C 21.872 9.56
*N *59:53 *C 21.872 6.064
*N *59:54 *C 22.585 6.064

*CAP
1 *26:Q 0.0
2 *29:A2 0.03491428
3 *60:A1 0.0
4 *61:A3 0.04479033
5 *62:A1 0.01733107
6 *63:A2 0.03206974
7 *64:A3 0.0
8 *65:A 0.03578882
9 *59:9 0.003727313
10 *59:10 0.01248639
11 *59:11 0.0824904
12 *59:12 0.03491141
13 *59:13 0.102647
14 *59:14 0.04299797
15 *59:15 0.1267894
16 *59:16 0.09570376
17 *59:17 0.1267894
18 *59:18 0.03682245
19 *59:19 0.01065364
20 *59:20 0.03206974
21 *59:21 0.1094679
22 *59:22 0.03002054
23 *59:23 0.01239992
24 *59:24 0.01666953
25 *59:25 0.04639956
26 *59:26 0.05563798
27 *59:27 0.04233059
28 *59:28 0.1402112
29 *59:29 0.02864512
30 *59:30 0.07579461
31 *59:31 0.02864512
32 *59:32 0.03074329
33 *59:33 0.02443951
34 *59:34 0.01111412
35 *59:35 0.01733107
36 *59:36 0.007196511
37 *59:37 0.03578882
38 *59:38 0.007967884
39 *59:39 0.01148528
40 *59:40 0.01846534
41 *59:41 0.04163921
42 *59:42 0.01270675
43 *59:43 0.03555363
44 *59:44 0.03929298
45 *59:45 0.04035664
46 *59:46 0.06078064
47 *59:47 0.08753473
48 *59:48 0.02834515
49 *59:49 0.05900012
50 *59:50 0.0179834
51 *59:51 0.01003724
52 *59:52 0.1874546
53 *59:53 0.1906254
54 *59:54 0.0324649
55 *59:46 *20:8 0.04571731
56 *59:14 *20:8 0.04571731
57 *59:31 *57:8 0.1361662
58 *59:29 *57:13 0.1361662
59 *59:13 *102:16 0.08042163
60 *59:11 *102:18 0.08042163
61 *59:31 *5:20 0.0987584
62 *59:29 *5:17 0.0987584
63 *59:31 *166:13 0.02095518
64 *59:29 *166:12 0.02095518
65 *59:28 *179:18 0.07570606
66 *59:32 *179:23 0.07570606

*RES
1 *59:9 *26:Q 1.0
2 *59:10 *60:A1 1.0
3 *59:11 *59:12 0.5
4 *59:13 *59:14 0.5
5 *59:15 *59:16 0.25
6 *59:17 *59:18 0.5
7 *59:19 *59:20 1.0
8 *59:18 *61:A3 1.0
9 *59:21 *59:22 0.5
10 *59:23 *64:A3 1.0
11 *59:24 *59:25 1.0
12 *59:26 *59:27 0.5
13 *59:28 *59:29 0.5
14 *59:30 *59:31 0.5
15 *59:32 *59:33 0.5
16 *59:34 *59:35 1.0
17 *59:36 *59:37 1.0
18 *59:38 *61:A3 0.04262821
19 *59:35 *62:A1 0.1612385
20 *65:A *59:37 0.5494168
21 *63:A2 *59:20 0.5087499
22 *29:A2 *59:25 0.3152942
23 *59:25 *59:39 0.0475
24 *59:10 *59:40 0.03448276
25 *59:40 *59:42 0.1867242
26 *59:42 *59:41 0.2178572
27 *59:41 *59:12 0.6090179
28 *59:34 *59:43 0.02738095
29 *59:43 *59:33 0.6575974
30 *59:36 *59:44 0.01424243
31 *59:44 *59:45 0.6553114
32 *59:14 *59:46 2.079793
33 *59:46 *59:45 0.1869842
34 *59:46 *59:47 0.1983517
35 *59:48 *59:19 0.02738095
36 *59:47 *59:16 3.158655
37 *59:16 *59:48 0.6441601
38 *59:29 *59:31 5.876158
39 *59:24 *59:49 0.02738096
40 *59:49 *59:27 0.6439708
41 *59:23 *59:50 0.03448276
42 *59:50 *59:51 0.1752586
43 *59:51 *59:22 0.1775697
44 *59:22 *59:52 0.7296847
45 *59:53 *59:52 6.144434
46 *59:53 *59:54 1.176993
47 *59:54 *59:9 0.04692771
48 *59:11 *59:13 6.145935
49 *59:13 *59:30 0.7252233
50 *59:30 *59:26 1.802386
51 *59:17 *59:15 4.241651
52 *59:32 *59:28 3.976071
53 *59:28 *59:21 4.247222

*END

*D_NET *66 0.6652114

*CONN
*I *27:D I *L 496.4084 *C 11.263 21.015
*I *67:Y O *L 0.0 *D NAND2X0_RVT *C 15.184 18.739
*N *66:3 *C 11.232 21.112
*N *66:4 *C 11.232 21.112
*N *66:5 *C 14.88 21.112
*N *66:6 *C 14.88 21.112
*N *66:7 *C 14.88 19.288
*N *66:8 *C 14.88 19.288
*N *66:9 *C 11.08 21.112
*N *66:10 *C 11.08 21.112
*N *66:11 *C 11.156 21.142
*N *66:12 *C 11.127 21.112
*N *66:13 *C 14.88 19.334

*CAP
1 *27:D 0.01034962
2 *67:Y 0.02373905
3 *66:3 0.162637
4 *66:4 0.01037911
5 *66:5 0.162637
6 *66:6 0.05689942
7 *66:7 0.01327808
8 *66:8 0.02373905
9 *66:9 0.004538926
10 *66:10 0.0119559
11 *66:11 0.02230552
12 *66:12 0.01491803
13 *66:13 0.0701775
14 *66:6 *68:21 0.0195549
15 *66:13 *68:21 0.0195549
16 *66:13 *102:13 0.03854743

*RES
1 *66:3 *66:4 0.5
2 *66:5 *66:6 0.5
3 *66:7 *66:8 1.0
4 *66:9 *66:10 1.0
5 *66:10 *66:11 0.05
6 *66:11 *27:D 0.3800001
7 *66:8 *67:Y 0.5600001
8 *66:9 *66:12 0.01424243
9 *66:12 *66:4 0.1366788
10 *66:7 *66:13 0.02738095
11 *66:13 *66:6 3.078001
12 *66:3 *66:5 6.414177

*END

*D_NET *68 2.048303

*CONN
*I *27:Q O *L 0.0 *D DFFX1_RVT *C 14.576 20.63
*I *69:A1 I *L 450.5898 *C 16.701 10.646
*I *62:A3 I *L 556.037 *C 17.445 9.408
*I *70:A I *L 688.1503 *C 16.398 7.581
*N *68:5 *C 17.464 7.584
*N *68:6 *C 17.464 7.584
*N *68:7 *C 16.4 10.624
*N *68:8 *C 16.4 10.624
*N *68:9 *C 16.4 8.952
*N *68:10 *C 16.4 8.952
*N *68:11 *C 17.464 8.952
*N *68:12 *C 17.464 8.952
*N *68:13 *C 14.576 20.63
*N *68:14 *C 14.576 12.6
*N *68:15 *C 14.576 12.6
*N *68:16 *C 16.4 12.6
*N *68:17 *C 16.4 12.6
*N *68:18 *C 17.445 9.408
*N *68:19 *C 16.398 7.584
*N *68:20 *C 17.454 7.584
*N *68:21 *C 14.576 20.584
*N *68:22 *C 16.4 10.591
*N *68:23 *C 16.4 10.657
*N *68:24 *C 16.4 10.471
*N *68:25 *C 17.445 9.362
*N *68:26 *C 17.464 7.63

*CAP
1 *27:Q 0.0
2 *69:A1 0.05147652
3 *62:A3 0.0
4 *70:A 0.009418456
5 *68:5 0.01055401
6 *68:6 0.00793417
7 *68:7 0.00642398
8 *68:8 0.05147652
9 *68:9 0.06197337
10 *68:10 0.08046973