*SPEF "ieee 1481-1999"
*DESIGN "s386"
*DATE "11:11:11 Fri 11 11, 1111"
*VENDOR "OpenRCX"
*PROGRAM "Parallel Extraction"
*VERSION "1.0"
*DESIGN_FLOW "NAME_SCOPE LOCAL" "PIN_CAP NONE"
*DIVIDER /
*DELIMITER :
*BUS_DELIMITER []
*T_UNIT 1 NS
*C_UNIT 1 PF
*R_UNIT 1 OHM
*L_UNIT 1 HENRY

*NAME_MAP
*1 CK
*2 DFF_0\.d
*3 DFF_0\.q
*4 DFF_1\.d
*5 DFF_1\.q
*6 DFF_2\.d
*7 DFF_2\.q
*8 DFF_3\.d
*9 DFF_3\.q
*10 DFF_4\.d
*11 DFF_4\.q
*12 DFF_5\.d
*13 DFF_5\.q
*14 GND
*16 _000_
*17 _001_
*18 _002_
*19 _003_
*20 _004_
*21 _005_
*22 _006_
*23 _007_
*24 _008_
*25 net5
*26 _010_
*27 _011_
*28 _012_
*29 _013_
*30 _014_
*31 _015_
*32 net4
*33 _017_
*34 net3
*35 _019_
*36 _020_
*37 _021_
*38 _022_
*39 net2
*40 net1
*41 _025_
*42 _026_
*43 _027_
*44 _028_
*45 _029_
*47 _031_
*48 _032_
*49 _033_
*50 _034_
*51 _035_
*52 _036_
*53 _037_
*54 _038_
*55 _039_
*56 _040_
*57 _041_
*58 _042_
*59 _043_
*60 _044_
*61 _045_
*62 _046_
*63 _047_
*64 _048_
*65 _049_
*66 _050_
*67 _051_
*68 _052_
*69 _053_
*70 _054_
*71 _055_
*72 _056_
*73 _057_
*74 _058_
*75 _059_
*76 _060_
*77 _061_
*78 _062_
*79 _063_
*80 _064_
*81 _065_
*82 _066_
*83 v0
*84 v1
*85 v13_D_10
*86 v13_D_11
*87 v13_D_12
*88 v13_D_6
*89 v13_D_7
*90 v13_D_8
*91 v13_D_9
*92 v2
*93 v3
*94 v4
*95 v5
*96 v6
*97 net6
*98 net7
*99 net8
*100 net9
*101 net10
*102 net11
*103 net12
*104 net13
*105 net14
*106 net15
*107 net16
*108 net17
*109 _067_
*110 _068_
*111 _069_
*112 _070_
*113 TAP_5
*114 _072_
*115 _073_
*116 _074_
*117 _075_
*118 _076_
*119 _077_
*120 _078_
*121 _079_
*122 TAP_4
*123 _081_
*124 _082_
*125 TAP_3
*126 _084_
*127 _085_
*128 _086_
*129 _087_
*130 TAP_2
*131 TAP_1
*132 _090_
*133 _091_
*134 _092_
*135 _093_
*136 _094_
*137 _095_
*138 _096_
*139 TAP_0
*140 _098_
*141 _099_
*142 _100_
*143 _101_
*144 _102_
*145 _103_
*146 _104_
*147 _105_
*148 _106_
*149 _107_
*150 _108_
*151 _109_
*152 _110_
*153 _111_
*154 _112_
*155 _113_
*156 _114_
*157 _115_
*158 _116_
*159 _117_
*160 _118_
*161 _119_
*162 _120_
*163 _121_
*164 _122_
*165 _123_
*166 _124_
*167 _125_
*168 _126_
*169 _127_
*170 _128_
*171 _129_
*172 _130_
*173 _131_
*174 _132_
*175 _133_
*176 _134_
*177 _135_
*178 _136_
*179 _137_
*180 _138_
*181 _139_
*182 _140_
*183 _141_
*184 _142_
*185 _143_
*186 _144_
*187 _145_
*188 _146_
*189 _147_
*190 _148_
*191 _149_
*192 _150_
*193 _151_
*194 _152_
*195 TAP_6
*196 TAP_7
*197 TAP_8
*198 TAP_9
*199 TAP_10
*200 TAP_11
*201 TAP_12
*202 input1
*203 input2
*204 input3
*205 input4
*206 input5
*207 input6
*208 input7
*209 input8
*210 output9
*211 output10
*212 output11
*213 output12
*214 output13
*215 output14
*216 output15
*217 rebuffer1
*218 rebuffer2
*219 FILLER_0_0_0
*220 FILLER_0_0_52
*221 FILLER_0_2_0
*222 FILLER_0_2_28
*223 FILLER_0_2_41
*224 FILLER_0_2_51
*225 FILLER_0_2_57
*226 FILLER_0_3_10
*227 FILLER_0_3_38
*228 FILLER_0_3_65
*229 FILLER_0_4_10
*230 FILLER_0_4_29
*231 FILLER_0_4_31
*232 FILLER_0_4_38
*233 FILLER_0_4_47
*234 FILLER_0_5_18
*235 FILLER_0_5_22
*236 FILLER_0_5_37
*237 FILLER_0_5_41
*238 FILLER_0_5_43
*239 FILLER_0_5_47
*240 FILLER_0_5_66
*241 FILLER_0_6_0
*242 FILLER_0_6_4
*243 FILLER_0_6_6
*244 FILLER_0_6_22
*245 FILLER_0_6_29
*246 FILLER_0_6_31
*247 FILLER_0_6_33
*248 FILLER_0_6_38
*249 FILLER_0_6_49
*250 FILLER_0_6_65
*251 FILLER_0_7_0
*252 FILLER_0_7_4
*253 FILLER_0_7_6
*254 FILLER_0_7_13
*255 FILLER_0_7_18
*256 FILLER_0_7_22
*257 FILLER_0_7_27
*258 FILLER_0_7_35
*259 FILLER_0_7_45
*260 FILLER_0_7_64
*261 FILLER_0_7_66
*262 FILLER_0_8_0
*263 FILLER_0_8_4
*264 FILLER_0_8_31
*265 FILLER_0_8_37
*266 FILLER_0_8_41
*267 FILLER_0_8_47
*268 FILLER_0_8_49
*269 FILLER_0_9_0
*270 FILLER_0_9_8
*271 FILLER_0_9_12
*272 FILLER_0_9_17
*273 FILLER_0_9_19
*274 FILLER_0_9_39
*275 FILLER_0_9_61
*276 FILLER_0_9_65
*277 FILLER_0_10_0
*278 FILLER_0_10_8
*279 FILLER_0_10_10
*280 FILLER_0_10_61
*281 FILLER_0_10_65

*PORTS
CK I
GND I
VDD I
v0 I
v1 I
v13_D_10 O
v13_D_11 O
v13_D_12 O
v13_D_6 O
v13_D_7 O
v13_D_8 O
v13_D_9 O
v2 I
v3 I
v4 I
v5 I
v6 I

*D_NET *1 0.000751936
*CONN
*P CK I
*I *202:A I *D sky130_fd_sc_hd__dlymetal6s2s_1
*CAP
1 CK 0.000341333
2 *202:A 0.000341333
3 *202:A *40:38 6.92705e-05
*RES
1 CK *202:A 23.0707 
*END

*D_NET *2 0.000223888
*CONN
*I *191:D I *D sky130_fd_sc_hd__dfxtp_4
*I *148:Y O *D sky130_fd_sc_hd__a21oi_1
*CAP
1 *191:D 0.000111274
2 *148:Y 0.000111274
3 *191:D *148:B1 1.34027e-06
4 *191:D *40:53 0
*RES
1 *148:Y *191:D 29.9505 
*END

*D_NET *3 0.0184574
*CONN
*I *147:B I *D sky130_fd_sc_hd__nand3_1
*I *167:B1_N I *D sky130_fd_sc_hd__a21boi_0
*I *146:A_N I *D sky130_fd_sc_hd__nand3b_1
*I *153:B1_N I *D sky130_fd_sc_hd__o21bai_1
*I *163:B I *D sky130_fd_sc_hd__and2b_1
*I *135:A I *D sky130_fd_sc_hd__nor3_1
*I *179:B1 I *D sky130_fd_sc_hd__o21ai_0
*I *176:B1 I *D sky130_fd_sc_hd__a21oi_1
*I *171:A2 I *D sky130_fd_sc_hd__o21ai_0
*I *142:A I *D sky130_fd_sc_hd__nor3_1
*I *181:B I *D sky130_fd_sc_hd__nor2_1
*I *187:A1 I *D sky130_fd_sc_hd__a211o_1
*I *155:C I *D sky130_fd_sc_hd__nand4_1
*I *151:B I *D sky130_fd_sc_hd__nand3_1
*I *110:B I *D sky130_fd_sc_hd__nor2_2
*I *191:Q O *D sky130_fd_sc_hd__dfxtp_4
*CAP
1 *147:B 1.90605e-05
2 *167:B1_N 0
3 *146:A_N 0.00018607
4 *153:B1_N 2.31818e-05
5 *163:B 0
6 *135:A 0.0002664
7 *179:B1 0
8 *176:B1 0.000558785
9 *171:A2 0
10 *142:A 0.000163812
11 *181:B 0.000102877
12 *187:A1 0.00012836
13 *155:C 0.000110044
14 *151:B 0.00013453
15 *110:B 5.4571e-05
16 *191:Q 0.000383583
17 *3:200 0.000406521
18 *3:196 0.000399501
19 *3:163 0.000347807
20 *3:115 0.000191841
21 *3:113 0.000995597
22 *3:107 0.000513125
23 *3:79 0.000606488
24 *3:69 0.000705413
25 *3:52 0.000503556
26 *3:31 0.000415396
27 *3:18 0.000272796
28 *3:14 0.000293702
29 *3:12 0.000201121
30 *3:10 0.00061427
31 *110:B *161:A3 0
32 *110:B *32:19 2.16355e-05
33 *110:B *36:26 1.19856e-05
34 *110:B *103:14 0.000107496
35 *135:A *132:A 4.58003e-05
36 *135:A *133:A 6.47779e-05
37 *135:A *162:A 9.22013e-06
38 *135:A *5:60 0.000211492
39 *135:A *5:64 6.31809e-05
40 *135:A *11:31 0.000111722
41 *135:A *11:33 0
42 *135:A *13:147 1.19856e-05
43 *135:A *41:38 2.65831e-05
44 *135:A *97:8 0.00015324
45 *135:A *97:14 0.000160384
46 *142:A *142:B 1.40479e-05
47 *142:A *171:A1 0.000328363
48 *146:A_N *51:16 0.00010618
49 *147:B *23:12 4.80635e-06
50 *151:B *150:B 0.000102874
51 *151:B *151:C 0.000124037
52 *151:B *152:A2 1.41976e-05
53 *151:B *5:56 5.51483e-06
54 *151:B *11:105 6.08467e-05
55 *151:B *13:108 5.04829e-06
56 *151:B *13:123 3.74852e-05
57 *153:B1_N *13:132 6.50586e-05
58 *155:C *157:A1 4.94e-06
59 *155:C *13:37 0.000200384
60 *155:C *22:31 2.12959e-05
61 *155:C *32:21 0
62 *176:B1 *171:B1 0.000322923
63 *176:B1 *174:A 8.60778e-05
64 *176:B1 *174:B 2.75449e-05
65 *176:B1 *177:B1 1.21461e-06
66 *176:B1 *186:A 9.55557e-05
67 *176:B1 *192:D 0.000100285
68 *176:B1 *7:12 2.33193e-05
69 *176:B1 *23:43 1.03434e-05
70 *176:B1 *23:86 0.000274047
71 *181:B *181:A 2.92694e-05
72 *181:B *182:B 6.3657e-05
73 *181:B *188:A1 0.00014067
74 *181:B *211:A 9.16193e-05
75 *187:A1 v13_D_11 0.000228593
76 *187:A1 *118:A 5.41227e-05
77 *187:A1 *187:C1 6.8721e-05
78 *187:A1 *188:A2 0.000127179
79 *187:A1 *209:A 7.56859e-06
80 *187:A1 *7:85 0.000130134
81 *187:A1 *19:22 9.75242e-05
82 *3:10 *142:C 0
83 *3:10 *154:A1 3.31882e-05
84 *3:10 *190:D 0.00037451
85 *3:10 *193:CLK 0
86 *3:10 *40:40 2.85274e-05
87 *3:10 *40:53 0
88 *3:12 *154:A1 0.000196638
89 *3:12 *190:D 3.31733e-05
90 *3:12 *36:58 6.74467e-05
91 *3:14 *152:A1 0
92 *3:14 *154:A1 0.000123582
93 *3:14 *13:123 0
94 *3:14 *36:47 9.46009e-05
95 *3:14 *36:58 3.20069e-06
96 *3:18 *149:A 0.000103546
97 *3:18 *151:C 0
98 *3:18 *36:47 1.16596e-05
99 *3:31 *150:A 2.91008e-06
100 *3:31 *151:C 2.29454e-05
101 *3:31 *36:20 0.000140304
102 *3:31 *36:26 9.82896e-06
103 *3:31 *98:43 7.06733e-06
104 *3:31 *103:14 6.50727e-05
105 *3:52 *150:B 5.33826e-05
106 *3:52 *151:C 6.08467e-05
107 *3:52 *158:A1 6.96846e-05
108 *3:52 *36:20 1.77097e-05
109 *3:52 *38:31 0.000189784
110 *3:69 *116:A 0.000258169
111 *3:69 *13:37 0.000498858
112 *3:69 *22:31 2.87885e-05
113 *3:69 *22:48 4.93206e-05
114 *3:69 *22:67 0.000162982
115 *3:79 *126:B 5.41377e-05
116 *3:79 *184:C1 0.000161013
117 *3:79 *185:B1 7.50722e-05
118 *3:79 *188:A1 0.000311249
119 *3:79 *188:A2 3.31882e-05
120 *3:79 *188:C1 0.000165481
121 *3:79 *7:85 6.94439e-05
122 *3:79 *19:22 1.69932e-05
123 *3:79 *35:12 0.000158559
124 *3:79 *99:16 2.37324e-05
125 *3:107 *127:C 1.52896e-05
126 *3:107 *180:B 1.2693e-05
127 *3:107 *184:C1 0.00014735
128 *3:107 *99:16 2.84561e-05
129 *3:113 *127:C 5.47736e-05
130 *3:113 *170:A2 5.92192e-05
131 *3:113 *170:B1 6.06269e-06
132 *3:113 *173:D 7.50872e-05
133 *3:113 *177:A2 5.21927e-05
134 *3:113 *177:A3 0.000125695
135 *3:113 *180:B 5.66868e-06
136 *3:113 *189:D 1.69932e-05
137 *3:113 *13:10 4.90829e-05
138 *3:113 *13:12 0.000136275
139 *3:113 *23:47 0
140 *3:113 *39:57 2.06435e-05
141 *3:113 *98:82 0.000148144
142 *3:163 *5:56 0.000160617
143 *3:163 *5:60 0.000248423
144 *3:163 *11:31 0.000154562
145 *3:163 *11:92 9.31436e-05
146 *3:196 *147:A 0.000211464
147 *3:196 *154:B1 6.08467e-05
148 *3:196 *23:8 2.81262e-05
149 *3:196 *23:12 2.41483e-05
150 *3:200 *167:A2 5.0715e-05
151 *3:200 *23:12 2.18145e-05
*RES
1 *191:Q *3:10 24.3337 
2 *3:10 *3:12 3.493 
3 *3:12 *3:14 3.90826 
4 *3:14 *3:18 7.1625 
5 *3:18 *110:B 11.1059 
6 *3:18 *3:31 4.62973 
7 *3:31 *151:B 22.0503 
8 *3:31 *3:52 12.8474 
9 *3:52 *155:C 17.7759 
10 *3:52 *3:69 4.41304 
11 *3:69 *3:79 20.1053 
12 *3:79 *187:A1 20.6233 
13 *3:79 *181:B 17.4385 
14 *3:69 *3:107 3.28538 
15 *3:107 *3:113 18.2766 
16 *3:113 *3:115 0.723396 
17 *3:115 *142:A 14.4335 
18 *3:115 *171:A2 9.24915 
19 *3:113 *176:B1 32.3065 
20 *3:107 *179:B1 13.7491 
21 *3:14 *3:163 9.10562 
22 *3:163 *135:A 28.0382 
23 *3:163 *163:B 9.24915 
24 *3:12 *153:B1_N 14.4725 
25 *3:10 *3:196 9.10562 
26 *3:196 *3:200 5.18434 
27 *3:200 *146:A_N 23.4354 
28 *3:200 *167:B1_N 9.24915 
29 *3:196 *147:B 9.82786 
*END

*D_NET *4 0.00106165
*CONN
*I *190:D I *D sky130_fd_sc_hd__dfxtp_4
*I *154:Y O *D sky130_fd_sc_hd__a21oi_1
*CAP
1 *190:D 0.000142367
2 *154:Y 0.000142367
3 *190:D *148:B1 0.000175674
4 *190:D *193:CLK 0
5 *190:D *36:58 5.41227e-05
6 *190:D *36:69 0.000139435
7 *3:10 *190:D 0.00037451
8 *3:12 *190:D 3.31733e-05
*RES
1 *154:Y *190:D 34.7286 
*END

*D_NET *5 0.0153291
*CONN
*I *171:A1 I *D sky130_fd_sc_hd__o21ai_0
*I *141:A1 I *D sky130_fd_sc_hd__a21oi_1
*I *172:B I *D sky130_fd_sc_hd__nor2_1
*I *151:A I *D sky130_fd_sc_hd__nand3_1
*I *147:A I *D sky130_fd_sc_hd__nand3_1
*I *110:A I *D sky130_fd_sc_hd__nor2_2
*I *162:A I *D sky130_fd_sc_hd__inv_1
*I *159:B I *D sky130_fd_sc_hd__nor2_1
*I *132:B I *D sky130_fd_sc_hd__nand2_1
*I *129:A I *D sky130_fd_sc_hd__nor3_4
*I *165:B1 I *D sky130_fd_sc_hd__a21o_1
*I *144:A_N I *D sky130_fd_sc_hd__nand2b_1
*I *155:B I *D sky130_fd_sc_hd__nand4_1
*I *185:A3 I *D sky130_fd_sc_hd__a311oi_2
*I *190:Q O *D sky130_fd_sc_hd__dfxtp_4
*CAP
1 *171:A1 9.68106e-05
2 *141:A1 0
3 *172:B 0.000115351
4 *151:A 6.50185e-05
5 *147:A 0.000176437
6 *110:A 4.99625e-05
7 *162:A 0.000323278
8 *159:B 0
9 *132:B 0.00014026
10 *129:A 0
11 *165:B1 0.000233827
12 *144:A_N 0.000113172
13 *155:B 0.000213559
14 *185:A3 0.000244743
15 *190:Q 8.13068e-05
16 *5:154 0.00018037
17 *5:132 0.000226399
18 *5:96 0.00014026
19 *5:76 0.000450348
20 *5:70 0.000373783
21 *5:64 0.000348372
22 *5:60 0.000703332
23 *5:56 0.000846171
24 *5:20 0.000627452
25 *5:18 0.000762442
26 *5:16 0.000208457
27 *5:12 0.000434498
28 *5:8 0.000453396
29 *110:A *155:D 0.000148129
30 *110:A *36:47 0.000145396
31 *132:B *134:A 9.14669e-05
32 *132:B *38:25 1.00846e-05
33 *132:B *97:18 3.01683e-06
34 *144:A_N *144:B 0.000135484
35 *147:A *155:D 0.000438887
36 *147:A *23:8 4.66492e-05
37 *147:A *23:12 0.000164815
38 *147:A *36:47 0.000243648
39 *147:A *36:58 0.000208961
40 *151:A *140:B 6.08467e-05
41 *151:A *152:A2 4.31603e-06
42 *151:A *11:105 3.60741e-05
43 *151:A *11:114 6.08467e-05
44 *151:A *13:104 0.000113968
45 *151:A *13:108 0.000111708
46 *155:B *136:C 0.000160617
47 *155:B *155:D 4.65954e-06
48 *155:B *160:C_N 2.75814e-05
49 *155:B *98:60 3.0332e-05
50 *162:A *164:A1 2.41274e-06
51 *162:A *164:A3 0.000104461
52 *162:A *168:A3 8.20492e-06
53 *162:A *168:B1 1.75155e-06
54 *162:A *11:31 2.22342e-05
55 *162:A *13:147 9.75356e-05
56 *162:A *65:8 1.80929e-05
57 *162:A *97:8 2.21765e-05
58 *165:B1 *137:B2 0
59 *165:B1 *144:B 0.000135698
60 *165:B1 *166:C 0.000264586
61 *165:B1 *25:21 7.62817e-05
62 *172:B *114:A 4.80635e-06
63 *172:B *127:C 6.50727e-05
64 *172:B *11:114 0.000167076
65 *172:B *13:104 0.00024619
66 *185:A3 *117:A 0.000367343
67 *185:A3 *117:B 0.000222669
68 *185:A3 *136:B 0.000113438
69 *185:A3 *137:A1 0.000195917
70 *185:A3 *137:A2 1.00937e-05
71 *185:A3 *185:A2 6.50727e-05
72 *185:A3 *185:C1 1.65872e-05
73 *185:A3 *98:60 1.21729e-05
74 *5:8 *194:D 3.34802e-05
75 *5:8 *13:10 0
76 *5:12 *111:A 0
77 *5:12 *141:A2 1.07248e-05
78 *5:12 *142:C 0.000140774
79 *5:12 *13:10 0
80 *5:16 *140:B 2.69795e-05
81 *5:16 *141:A2 0.000127179
82 *5:16 *11:116 0
83 *5:16 *38:31 5.65074e-05
84 *5:18 *140:B 5.1493e-06
85 *5:18 *152:A1 9.84424e-06
86 *5:18 *11:116 1.27831e-06
87 *5:18 *38:31 1.50389e-06
88 *5:20 *117:A 5.65354e-05
89 *5:20 *149:A 0.000102032
90 *5:20 *149:B 5.49916e-05
91 *5:20 *152:A1 2.57465e-06
92 *5:20 *11:118 1.66467e-05
93 *5:20 *36:20 2.57465e-06
94 *5:20 *38:31 2.32054e-05
95 *5:20 *98:60 2.32556e-05
96 *5:56 *152:A2 4.2372e-05
97 *5:56 *11:92 2.61147e-05
98 *5:56 *11:105 3.03967e-05
99 *5:56 *13:104 0.000102003
100 *5:56 *13:108 0.000164843
101 *5:64 *11:31 5.64929e-05
102 *5:64 *11:33 3.20069e-06
103 *5:70 *132:A 8.30552e-05
104 *5:70 *133:A 2.22198e-05
105 *5:70 *161:A1 0.000160617
106 *5:70 *32:8 0.000100493
107 *5:70 *51:16 0.000378054
108 *5:76 *132:A 3.67528e-06
109 *5:76 *145:B1 0
110 *5:76 *51:16 0.00012568
111 *135:A *162:A 9.22013e-06
112 *135:A *5:60 0.000211492
113 *135:A *5:64 6.31809e-05
114 *142:A *171:A1 0.000328363
115 *151:B *5:56 5.51483e-06
116 *3:163 *5:56 0.000160617
117 *3:163 *5:60 0.000248423
118 *3:196 *147:A 0.000211464
*RES
1 *190:Q *5:8 15.9964 
2 *5:8 *5:12 7.96307 
3 *5:12 *5:16 4.2258 
4 *5:16 *5:18 1.00149 
5 *5:18 *5:20 4.73876 
6 *5:20 *185:A3 24.2945 
7 *5:20 *155:B 18.5718 
8 *5:18 *5:56 13.5424 
9 *5:56 *5:60 9.66022 
10 *5:60 *5:64 7.1625 
11 *5:64 *5:70 14.2568 
12 *5:70 *5:76 7.32596 
13 *5:76 *144:A_N 12.2151 
14 *5:76 *165:B1 16.6519 
15 *5:70 *5:96 4.5 
16 *5:96 *129:A 9.24915 
17 *5:96 *132:B 13.3484 
18 *5:64 *159:B 9.24915 
19 *5:60 *162:A 20.829 
20 *5:56 *5:132 4.5 
21 *5:132 *110:A 16.4116 
22 *5:132 *147:A 24.1971 
23 *5:16 *5:154 4.5 
24 *5:154 *151:A 12.2151 
25 *5:154 *172:B 13.8789 
26 *5:12 *141:A1 13.7491 
27 *5:8 *171:A1 17.2456 
*END

*D_NET *6 0.000888618
*CONN
*I *189:D I *D sky130_fd_sc_hd__dfxtp_2
*I *177:X O *D sky130_fd_sc_hd__a31o_1
*CAP
1 *189:D 0.000297145
2 *177:X 0.000297145
3 *189:D *177:A3 7.50872e-05
4 *189:D *189:CLK 7.02539e-05
5 *189:D *192:D 0
6 *189:D *192:CLK 6.26091e-05
7 *189:D *7:10 0
8 *189:D *13:10 0
9 *189:D *23:41 6.50727e-05
10 *189:D *40:12 4.3116e-06
11 *3:113 *189:D 1.69932e-05
*RES
1 *177:X *189:D 35.3991 
*END

*D_NET *7 0.0104605
*CONN
*I *171:B1 I *D sky130_fd_sc_hd__o21ai_0
*I *174:B I *D sky130_fd_sc_hd__nor2_1
*I *173:A I *D sky130_fd_sc_hd__nand4_1
*I *124:A1 I *D sky130_fd_sc_hd__a21oi_1
*I *187:C1 I *D sky130_fd_sc_hd__a211o_1
*I *118:B I *D sky130_fd_sc_hd__nand2_1
*I *126:A I *D sky130_fd_sc_hd__nor2_2
*I *182:B I *D sky130_fd_sc_hd__nor2_1
*I *114:B I *D sky130_fd_sc_hd__nand2_1
*I *189:Q O *D sky130_fd_sc_hd__dfxtp_2
*CAP
1 *171:B1 0.000171778
2 *174:B 5.37662e-05
3 *173:A 4.23618e-05
4 *124:A1 0
5 *187:C1 0.000133356
6 *118:B 2.89444e-05
7 *126:A 0.000157495
8 *182:B 0.000218362
9 *114:B 0.000191324
10 *189:Q 0.000205299
11 *7:85 0.000361715
12 *7:66 0.000468168
13 *7:49 0.000590717
14 *7:43 0.000610186
15 *7:18 0.000728437
16 *7:16 0.000452244
17 *7:12 0.000374014
18 *7:10 0.000475467
19 *114:B *114:A 2.19357e-05
20 *114:B *178:A1 8.95843e-06
21 *114:B *178:A3 0
22 *114:B *184:B1 9.85999e-05
23 *114:B *192:D 0.000135391
24 *114:B *39:57 2.71542e-05
25 *114:B *98:82 0
26 *118:B *29:8 1.65872e-05
27 *126:A *116:A 6.08467e-05
28 *126:A *117:B 6.7671e-06
29 *126:A *17:8 2.99978e-05
30 *126:A *34:28 0.000253916
31 *126:A *35:12 1.03403e-05
32 *171:B1 *192:D 0.000100285
33 *173:A *169:A 1.41976e-05
34 *173:A *170:A1 1.65872e-05
35 *173:A *175:A2 6.08467e-05
36 *173:A *34:64 6.08467e-05
37 *174:B *174:A 1.04453e-05
38 *174:B *176:A2 1.07248e-05
39 *174:B *178:B1 0
40 *182:B *181:A 4.58907e-05
41 *182:B *183:A2 3.92275e-05
42 *182:B *187:B1 7.50722e-05
43 *182:B *210:A 6.92705e-05
44 *182:B *211:A 0.000375025
45 *182:B *9:41 9.75356e-05
46 *187:C1 v13_D_11 3.40562e-05
47 *187:C1 *118:A 0.000417464
48 *187:C1 *121:B 0
49 *187:C1 *187:B1 6.92705e-05
50 *187:C1 *19:22 6.08467e-05
51 *187:C1 *29:8 1.41976e-05
52 *7:10 *192:CLK 0
53 *7:16 *178:B1 0
54 *7:16 *186:A 0.00021171
55 *7:16 *192:D 0.000251212
56 *7:16 *34:84 3.0577e-05
57 *7:18 *192:D 0.000285736
58 *7:18 *34:60 0.000292453
59 *7:18 *34:84 1.72347e-05
60 *7:43 *123:C 2.89907e-05
61 *7:43 *180:B 0
62 *7:43 *184:B1 2.1558e-06
63 *7:43 *184:B2 6.00842e-05
64 *7:43 *22:84 4.69495e-06
65 *7:43 *34:12 7.75874e-05
66 *7:43 *34:60 1.19737e-05
67 *7:43 *98:29 0.000211573
68 *7:43 *98:39 3.31745e-05
69 *7:49 v13_D_10 2.28012e-05
70 *7:49 *123:C 1.87469e-05
71 *7:49 *183:A2 1.09738e-05
72 *7:49 *9:39 1.54741e-05
73 *7:49 *9:41 0.000156869
74 *7:66 *116:A 6.50727e-05
75 *7:66 *183:A1 1.92172e-05
76 *7:66 *183:A2 0.000111708
77 *7:66 *17:8 7.68538e-06
78 *7:85 *118:A 5.05252e-05
79 *7:85 *209:A 0.000185363
80 *7:85 *19:22 3.57213e-05
81 *7:85 *34:28 2.95757e-05
82 *176:B1 *171:B1 0.000322923
83 *176:B1 *174:B 2.75449e-05
84 *176:B1 *7:12 2.33193e-05
85 *181:B *182:B 6.3657e-05
86 *187:A1 *187:C1 6.8721e-05
87 *187:A1 *7:85 0.000130134
88 *189:D *7:10 0
89 *3:79 *7:85 6.94439e-05
*RES
1 *189:Q *7:10 17.6896 
2 *7:10 *7:12 2.24725 
3 *7:12 *7:16 7.15699 
4 *7:16 *7:18 6.19214 
5 *7:18 *114:B 19.291 
6 *7:18 *7:43 15.9528 
7 *7:43 *7:49 6.20436 
8 *7:49 *182:B 22.0112 
9 *7:49 *7:66 7.44181 
10 *7:66 *126:A 13.8789 
11 *7:66 *7:85 16.3036 
12 *7:85 *118:B 9.97254 
13 *7:85 *187:C1 15.5668 
14 *7:43 *124:A1 13.7491 
15 *7:16 *173:A 15.0271 
16 *7:12 *174:B 15.4834 
17 *7:10 *171:B1 20.0427 
*END

*D_NET *8 0.00214135
*CONN
*I *192:D I *D sky130_fd_sc_hd__dfxtp_2
*I *184:Y O *D sky130_fd_sc_hd__o221ai_1
*CAP
1 *192:D 0.000463562
2 *184:Y 0.000463562
3 *192:D *173:D 4.76283e-05
4 *192:D *178:A3 4.12822e-05
5 *192:D *23:47 0.000177772
6 *192:D *39:57 9.57557e-06
7 *192:D *98:39 6.50586e-05
8 *114:B *192:D 0.000135391
9 *171:B1 *192:D 0.000100285
10 *176:B1 *192:D 0.000100285
11 *189:D *192:D 0
12 *7:16 *192:D 0.000251212
13 *7:18 *192:D 0.000285736
*RES
1 *184:Y *192:D 41.1109 
*END

*D_NET *9 0.00971345
*CONN
*I *170:A1 I *D sky130_fd_sc_hd__o21ai_0
*I *112:B I *D sky130_fd_sc_hd__nand4_1
*I *123:A I *D sky130_fd_sc_hd__nand4_1
*I *116:B I *D sky130_fd_sc_hd__nor2_1
*I *127:A_N I *D sky130_fd_sc_hd__nand3b_2
*I *181:A I *D sky130_fd_sc_hd__nor2_1
*I *187:B1 I *D sky130_fd_sc_hd__a211o_1
*I *174:A I *D sky130_fd_sc_hd__nor2_1
*I *192:Q O *D sky130_fd_sc_hd__dfxtp_2
*CAP
1 *170:A1 0.000555665
2 *112:B 5.63527e-05
3 *123:A 0
4 *116:B 5.78443e-05
5 *127:A_N 0.000379779
6 *181:A 0.000154389
7 *187:B1 0.00024048
8 *174:A 0.000281392
9 *192:Q 4.5018e-05
10 *9:73 0.000704766
11 *9:41 0.000510627
12 *9:39 0.000420036
13 *9:35 0.000514558
14 *9:25 0.000630753
15 *9:23 0.000799124
16 *9:6 0.000472892
17 *112:B *112:D 5.04829e-06
18 *116:B *184:C1 9.24241e-05
19 *116:B *188:C1 5.92192e-05
20 *116:B *209:A 0.000143017
21 *127:A_N *127:C 1.43983e-05
22 *127:A_N *136:C 4.15865e-05
23 *127:A_N *36:20 2.8182e-06
24 *170:A1 *109:A 5.42866e-06
25 *170:A1 *112:A 3.21004e-06
26 *170:A1 *169:A 0.000222016
27 *170:A1 *170:A2 1.43983e-05
28 *170:A1 *173:C 8.99266e-05
29 *170:A1 *175:A1 2.1176e-05
30 *170:A1 *175:A2 0.000158371
31 *170:A1 *176:A1 0.000111722
32 *170:A1 *176:A2 6.78549e-05
33 *170:A1 *178:B1 6.64392e-05
34 *170:A1 *212:A 1.19856e-05
35 *170:A1 *76:18 6.60527e-05
36 *181:A *188:A1 6.08467e-05
37 *187:B1 v13_D_11 3.14978e-05
38 *187:B1 *124:A2 0
39 *187:B1 *211:A 0
40 *187:B1 *19:22 0.000252906
41 *9:23 *23:99 0.000188012
42 *9:25 *112:A 8.98169e-05
43 *9:25 *23:99 0.000175259
44 *9:25 *39:49 3.27606e-06
45 *9:35 *112:A 5.92192e-05
46 *9:35 *123:C 6.08467e-05
47 *9:35 *124:A2 0.000106069
48 *9:35 *124:B1 7.73257e-05
49 *9:35 *23:99 5.56367e-05
50 *9:35 *23:105 0.000361484
51 *9:35 *34:18 0
52 *9:35 *39:49 0.000134868
53 *9:39 *123:C 2.95757e-05
54 *9:39 *19:22 6.64609e-05
55 *9:41 *19:22 0.000125834
56 *9:73 *23:105 0.000207266
57 *9:73 *34:18 3.99086e-06
58 *173:A *170:A1 1.65872e-05
59 *174:B *174:A 1.04453e-05
60 *176:B1 *174:A 8.60778e-05
61 *181:B *181:A 2.92694e-05
62 *182:B *181:A 4.58907e-05
63 *182:B *187:B1 7.50722e-05
64 *182:B *9:41 9.75356e-05
65 *187:C1 *187:B1 6.92705e-05
66 *7:49 *9:39 1.54741e-05
67 *7:49 *9:41 0.000156869
*RES
1 *192:Q *9:6 9.97254 
2 *9:6 *174:A 23.4382 
3 *9:6 *9:23 9.23876 
4 *9:23 *9:25 3.493 
5 *9:25 *9:35 17.6327 
6 *9:35 *9:39 5.91674 
7 *9:39 *9:41 4.73876 
8 *9:41 *187:B1 20.5059 
9 *9:41 *181:A 17.4626 
10 *9:39 *9:73 8.55102 
11 *9:73 *127:A_N 15.5909 
12 *9:73 *116:B 20.9116 
13 *9:35 *123:A 9.24915 
14 *9:25 *112:B 14.4725 
15 *9:23 *170:A1 27.5178 
*END

*D_NET *10 0.0012944
*CONN
*I *193:D I *D sky130_fd_sc_hd__dfxtp_4
*I *168:Y O *D sky130_fd_sc_hd__a311oi_1
*CAP
1 *193:D 0.00030211
2 *168:Y 0.00030211
3 *193:D *148:A2 5.39463e-05
4 *193:D *167:A1 3.88002e-05
5 *193:D *168:B1 0.00027329
6 *193:D *11:21 0
7 *193:D *13:132 0.000324137
8 *193:D *51:16 0
*RES
1 *168:Y *193:D 36.9792 
*END

*D_NET *11 0.0130039
*CONN
*I *111:A I *D sky130_fd_sc_hd__nor2_4
*I *179:A1 I *D sky130_fd_sc_hd__o21ai_0
*I *137:A1 I *D sky130_fd_sc_hd__o22a_1
*I *185:A1 I *D sky130_fd_sc_hd__a311oi_2
*I *119:A I *D sky130_fd_sc_hd__or3_4
*I *136:A I *D sky130_fd_sc_hd__nand3_1
*I *140:A I *D sky130_fd_sc_hd__nand2_1
*I *152:B1 I *D sky130_fd_sc_hd__a21o_1
*I *159:A I *D sky130_fd_sc_hd__nor2_1
*I *160:B I *D sky130_fd_sc_hd__nor3b_1
*I *166:A I *D sky130_fd_sc_hd__nand3_1
*I *128:A_N I *D sky130_fd_sc_hd__nand2b_4
*I *133:A I *D sky130_fd_sc_hd__nor2_1
*I *146:C I *D sky130_fd_sc_hd__nand3b_1
*I *193:Q O *D sky130_fd_sc_hd__dfxtp_4
*CAP
1 *111:A 0.000221238
2 *179:A1 4.94225e-05
3 *137:A1 0.000243156
4 *185:A1 0
5 *119:A 0.000183307
6 *136:A 7.77246e-05
7 *140:A 0
8 *152:B1 0
9 *159:A 0
10 *160:B 5.03687e-05
11 *166:A 0
12 *128:A_N 0.00039383
13 *133:A 0.000371315
14 *146:C 0.000492526
15 *193:Q 0.000252471
16 *11:133 0.000213322
17 *11:131 0.00041971
18 *11:118 0.000348601
19 *11:116 0.00028242
20 *11:114 0.000392574
21 *11:105 0.000321728
22 *11:92 0.000407419
23 *11:71 5.03687e-05
24 *11:58 0.000463554
25 *11:33 0.000507428
26 *11:31 0.000254643
27 *11:21 0.000597958
28 *11:6 0.00100633
29 *111:A *141:A2 3.58321e-05
30 *111:A *13:12 0.000181733
31 *111:A *23:41 6.50586e-05
32 *119:A *117:A 4.94695e-05
33 *119:A *119:C 2.22198e-05
34 *119:A *137:A2 3.92275e-05
35 *119:A *29:8 2.65831e-05
36 *119:A *99:16 0.000150493
37 *128:A_N *145:A1 0.000228593
38 *128:A_N *156:B 8.64857e-05
39 *128:A_N *166:C 6.19019e-05
40 *128:A_N *206:A 0
41 *128:A_N *216:A 7.77268e-05
42 *128:A_N *37:10 0.000299886
43 *128:A_N *103:14 0
44 *133:A *132:A 5.41377e-05
45 *133:A *135:C 6.50727e-05
46 *133:A *41:38 5.97264e-05
47 *136:A *117:A 9.78551e-06
48 *136:A *136:C 0.000111722
49 *137:A1 *137:A2 3.62662e-06
50 *137:A1 *137:B2 2.91008e-06
51 *137:A1 *185:A2 7.50156e-05
52 *146:C *148:A1 3.62662e-06
53 *146:C *193:CLK 9.0828e-05
54 *160:B *160:A 0.000171288
55 *179:A1 *179:A2 6.08467e-05
56 *179:A1 *209:A 2.16355e-05
57 *179:A1 *98:43 4.0752e-05
58 *179:A1 *99:16 2.20702e-05
59 *11:6 *142:B 0.000211478
60 *11:21 *148:A2 1.79672e-05
61 *11:21 *155:D 0.000400488
62 *11:21 *167:A1 0
63 *11:21 *168:A1 0.000127164
64 *11:21 *168:A3 0
65 *11:21 *13:147 0
66 *11:21 *36:69 2.18741e-05
67 *11:31 *132:A 0
68 *11:31 *164:B1 3.6455e-05
69 *11:31 *168:A3 0.000190028
70 *11:33 *168:A3 0.000107561
71 *11:58 *168:A3 2.26985e-05
72 *11:58 *97:14 0
73 *11:58 *103:14 0
74 *11:92 *154:A1 2.65831e-05
75 *11:105 *140:B 6.08467e-05
76 *11:105 *141:A2 1.41976e-05
77 *11:105 *152:A2 4.19832e-05
78 *11:105 *13:108 7.68538e-06
79 *11:114 *141:A2 2.15348e-05
80 *11:116 *149:A 6.01944e-06
81 *11:116 *152:A1 0.00012448
82 *11:116 *13:12 1.55462e-05
83 *11:116 *13:14 4.52469e-05
84 *11:116 *13:16 1.44611e-05
85 *11:118 *117:A 1.04192e-05
86 *11:118 *149:A 5.22654e-06
87 *11:118 *13:16 6.7992e-05
88 *11:118 *36:20 6.51527e-05
89 *11:131 *117:A 0.000304398
90 *11:131 *185:A2 0.000130204
91 *11:131 *13:16 1.01656e-05
92 *11:133 *117:A 4.18989e-05
93 *11:133 *185:A2 1.09738e-05
94 *11:133 *99:16 0
95 *135:A *133:A 6.47779e-05
96 *135:A *11:31 0.000111722
97 *135:A *11:33 0
98 *151:A *11:105 3.60741e-05
99 *151:A *11:114 6.08467e-05
100 *151:B *11:105 6.08467e-05
101 *162:A *11:31 2.22342e-05
102 *172:B *11:114 0.000167076
103 *185:A3 *137:A1 0.000195917
104 *193:D *11:21 0
105 *3:163 *11:31 0.000154562
106 *3:163 *11:92 9.31436e-05
107 *5:12 *111:A 0
108 *5:16 *11:116 0
109 *5:18 *11:116 1.27831e-06
110 *5:20 *11:118 1.66467e-05
111 *5:56 *11:92 2.61147e-05
112 *5:56 *11:105 3.03967e-05
113 *5:64 *11:31 5.64929e-05
114 *5:64 *11:33 3.20069e-06
115 *5:70 *133:A 2.22198e-05
*RES
1 *193:Q *11:6 13.3002 
2 *11:6 *146:C 17.0618 
3 *11:6 *11:21 17.8913 
4 *11:21 *11:31 11.6823 
5 *11:31 *11:33 2.03962 
6 *11:33 *133:A 29.4677 
7 *11:33 *11:58 2.1129 
8 *11:58 *128:A_N 26.6886 
9 *11:58 *11:71 4.5 
10 *11:71 *166:A 9.24915 
11 *11:71 *160:B 11.0817 
12 *11:31 *159:A 13.7491 
13 *11:21 *11:92 4.05102 
14 *11:92 *152:B1 9.24915 
15 *11:92 *11:105 7.04105 
16 *11:105 *140:A 9.24915 
17 *11:105 *11:114 6.88721 
18 *11:114 *11:116 3.493 
19 *11:116 *11:118 3.493 
20 *11:118 *136:A 15.7599 
21 *11:118 *11:131 5.98452 
22 *11:131 *11:133 1.00149 
23 *11:133 *119:A 19.8464 
24 *11:133 *185:A1 13.7491 
25 *11:131 *137:A1 18.2342 
26 *11:116 *179:A1 15.5817 
27 *11:114 *111:A 21.2876 
*END

*D_NET *12 0.00057735
*CONN
*I *194:D I *D sky130_fd_sc_hd__dfxtp_4
*I *142:Y O *D sky130_fd_sc_hd__nor3_1
*CAP
1 *194:D 0.000239405
2 *142:Y 0.000239405
3 *194:D *13:10 0
4 *194:D *40:38 6.50586e-05
5 *5:8 *194:D 3.34802e-05
*RES
1 *142:Y *194:D 33.791 
*END

*D_NET *13 0.0152376
*CONN
*I *111:B I *D sky130_fd_sc_hd__nor2_4
*I *140:B I *D sky130_fd_sc_hd__nand2_1
*I *163:A_N I *D sky130_fd_sc_hd__and2b_1
*I *132:A I *D sky130_fd_sc_hd__nand2_1
*I *164:A1 I *D sky130_fd_sc_hd__a31oi_1
*I *153:A1 I *D sky130_fd_sc_hd__o21bai_1
*I *150:B I *D sky130_fd_sc_hd__nor2_1
*I *179:A2 I *D sky130_fd_sc_hd__o21ai_0
*I *116:A I *D sky130_fd_sc_hd__nor2_1
*I *157:A1 I *D sky130_fd_sc_hd__o221ai_1
*I *156:A I *D sky130_fd_sc_hd__and2_0
*I *143:A_N I *D sky130_fd_sc_hd__nand2b_1
*I *185:A2 I *D sky130_fd_sc_hd__a311oi_2
*I *194:Q O *D sky130_fd_sc_hd__dfxtp_4
*CAP
1 *111:B 0
2 *140:B 5.38271e-05
3 *163:A_N 0
4 *132:A 0.000590264
5 *164:A1 2.63911e-05
6 *153:A1 0
7 *150:B 0.000126334
8 *179:A2 4.58858e-05
9 *116:A 0.000386797
10 *157:A1 2.72376e-05
11 *156:A 1.98947e-05
12 *143:A_N 0.000186632
13 *185:A2 0.000278391
14 *194:Q 0.00048907
15 *13:147 0.000700472
16 *13:132 0.00043135
17 *13:123 0.000507309
18 *13:108 0.000370015
19 *13:104 0.000205839
20 *13:43 0.000563008
21 *13:37 0.000833341
22 *13:33 0.000836418
23 *13:16 0.000450452
24 *13:14 0.000276022
25 *13:12 0.000365156
26 *13:10 0.000675262
27 *116:A *183:A1 0.000201886
28 *116:A *17:8 1.92336e-05
29 *116:A *19:22 0.000135931
30 *116:A *22:67 6.32483e-05
31 *116:A *34:28 1.35494e-05
32 *132:A v13_D_7 0
33 *132:A *145:B1 8.37812e-05
34 *132:A *205:A 0
35 *132:A *207:A 0
36 *132:A *41:27 0.000143032
37 *132:A *51:16 0
38 *140:B *38:31 4.42142e-05
39 *143:A_N v13_D_6 0.000122378
40 *143:A_N v13_D_8 0
41 *143:A_N *120:B 0
42 *143:A_N *138:B 0
43 *143:A_N *143:B 0.000203185
44 *143:A_N *145:A1 6.6856e-06
45 *143:A_N *49:6 4.3103e-05
46 *143:A_N *103:14 0
47 *150:B *149:A 0
48 *150:B *38:31 2.96441e-05
49 *156:A *137:B2 6.08467e-05
50 *156:A *156:B 2.16355e-05
51 *157:A1 *157:B2 9.73797e-06
52 *157:A1 *38:31 0
53 *164:A1 *168:A2 2.41274e-06
54 *164:A1 *168:B1 2.65667e-05
55 *179:A2 *149:A 0
56 *179:A2 *184:B1 0
57 *179:A2 *209:A 1.19856e-05
58 *179:A2 *98:39 0
59 *179:A2 *98:43 0.000111722
60 *185:A2 *185:C1 0.000171307
61 *185:A2 *99:16 0.000138733
62 *13:10 *40:12 0
63 *13:10 *40:38 9.9028e-05
64 *13:12 *127:C 8.62625e-06
65 *13:14 *127:C 0.000118485
66 *13:16 *127:C 0.000188583
67 *13:16 *99:16 1.18955e-05
68 *13:43 *137:B1 0
69 *13:43 *143:B 1.25301e-05
70 *13:43 *157:B2 0.000296007
71 *13:43 *158:A2 0
72 *13:43 *185:C1 0
73 *13:43 *38:31 0
74 *13:123 *153:A2 0.000216458
75 *13:123 *154:A1 0
76 *13:123 *38:31 6.83365e-05
77 *13:132 *153:A2 5.14816e-05
78 *13:132 *168:A1 1.43848e-05
79 *13:132 *168:A2 2.78407e-05
80 *13:132 *168:B1 1.92336e-05
81 *13:132 *168:C1 0.000107496
82 *13:147 *164:B1 0.00012568
83 *13:147 *167:A1 1.44467e-05
84 *13:147 *168:A3 9.2346e-06
85 *13:147 *51:16 0
86 *111:A *13:12 0.000181733
87 *126:A *116:A 6.08467e-05
88 *133:A *132:A 5.41377e-05
89 *135:A *132:A 4.58003e-05
90 *135:A *13:147 1.19856e-05
91 *137:A1 *185:A2 7.50156e-05
92 *151:A *140:B 6.08467e-05
93 *151:A *13:104 0.000113968
94 *151:A *13:108 0.000111708
95 *151:B *150:B 0.000102874
96 *151:B *13:108 5.04829e-06
97 *151:B *13:123 3.74852e-05
98 *153:B1_N *13:132 6.50586e-05
99 *155:C *157:A1 4.94e-06
100 *155:C *13:37 0.000200384
101 *162:A *164:A1 2.41274e-06
102 *162:A *13:147 9.75356e-05
103 *172:B *13:104 0.00024619
104 *179:A1 *179:A2 6.08467e-05
105 *185:A3 *185:A2 6.50727e-05
106 *189:D *13:10 0
107 *193:D *13:132 0.000324137
108 *194:D *13:10 0
109 *3:14 *13:123 0
110 *3:52 *150:B 5.33826e-05
111 *3:69 *116:A 0.000258169
112 *3:69 *13:37 0.000498858
113 *3:113 *13:10 4.90829e-05
114 *3:113 *13:12 0.000136275
115 *5:8 *13:10 0
116 *5:12 *13:10 0
117 *5:16 *140:B 2.69795e-05
118 *5:18 *140:B 5.1493e-06
119 *5:56 *13:104 0.000102003
120 *5:56 *13:108 0.000164843