*SPEF "ieee 1481-1999"
*DESIGN "s386"
*DATE "11:11:11 Fri 11 11, 1111"
*VENDOR "OpenRCX"
*PROGRAM "Parallel Extraction"
*VERSION "1.0"
*DESIGN_FLOW "NAME_SCOPE LOCAL" "PIN_CAP NONE"
*DIVIDER /
*DELIMITER :
*BUS_DELIMITER []
*T_UNIT 1 NS
*C_UNIT 1 PF
*R_UNIT 1 OHM
*L_UNIT 1 HENRY

*NAME_MAP
*1 CK
*2 DFF_0\.d
*3 DFF_0\.q
*4 DFF_1\.d
*5 DFF_1\.q
*6 DFF_2\.d
*7 DFF_2\.q
*8 DFF_3\.d
*9 DFF_3\.q
*10 DFF_4\.d
*11 DFF_4\.q
*12 DFF_5\.d
*13 DFF_5\.q
*14 GND
*16 _000_
*17 _001_
*18 _002_
*19 _003_
*20 _004_
*21 _005_
*22 _006_
*23 _007_
*24 _008_
*25 net5
*26 _010_
*27 _011_
*28 _012_
*29 _013_
*30 _014_
*31 _015_
*32 net4
*33 _017_
*34 net3
*35 _019_
*36 _020_
*37 _021_
*38 _022_
*39 net2
*40 net1
*41 _025_
*42 _026_
*43 _027_
*44 _028_
*45 _029_
*47 _031_
*48 _032_
*49 _033_
*50 _034_
*51 _035_
*52 _036_
*53 _037_
*54 _038_
*55 _039_
*56 _040_
*57 _041_
*58 _042_
*59 _043_
*60 _044_
*61 _045_
*62 _046_
*63 _047_
*64 _048_
*65 _049_
*66 _050_
*67 _051_
*68 _052_
*69 _053_
*70 _054_
*71 _055_
*72 _056_
*73 _057_
*74 _058_
*75 _059_
*76 _060_
*77 _061_
*78 _062_
*79 _063_
*80 _064_
*81 _065_
*82 _066_
*83 v0
*84 v1
*85 v13_D_10
*86 v13_D_11
*87 v13_D_12
*88 v13_D_6
*89 v13_D_7
*90 v13_D_8
*91 v13_D_9
*92 v2
*93 v3
*94 v4
*95 v5
*96 v6
*97 net6
*98 net7
*99 net8
*100 net9
*101 net10
*102 net11
*103 net12
*104 net13
*105 net14
*106 net15
*107 net16
*108 _067_
*109 _068_
*110 _069_
*111 _070_
*112 TAP_5
*113 _072_
*114 _073_
*115 _074_
*116 _075_
*117 _076_
*118 _077_
*119 _078_
*120 _079_
*121 TAP_4
*122 _081_
*123 _082_
*124 TAP_3
*125 _084_
*126 _085_
*127 _086_
*128 _087_
*129 TAP_2
*130 TAP_1
*131 _090_
*132 _091_
*133 _092_
*134 _093_
*135 _094_
*136 _095_
*137 _096_
*138 TAP_0
*139 _098_
*140 _099_
*141 _100_
*142 _101_
*143 _102_
*144 _103_
*145 _104_
*146 _105_
*147 _106_
*148 _107_
*149 _108_
*150 _109_
*151 _110_
*152 _111_
*153 _112_
*154 _113_
*155 _114_
*156 _115_
*157 _116_
*158 _117_
*159 _118_
*160 _119_
*161 _120_
*162 _121_
*163 _122_
*164 _123_
*165 _124_
*166 _125_
*167 _126_
*168 _127_
*169 _128_
*170 _129_
*171 _130_
*172 _131_
*173 _132_
*174 _133_
*175 _134_
*176 _135_
*177 _136_
*178 _137_
*179 _138_
*180 _139_
*181 _140_
*182 _141_
*183 _142_
*184 _143_
*185 _144_
*186 _145_
*187 _146_
*188 _147_
*189 _148_
*190 _149_
*191 _150_
*192 _151_
*193 _152_
*194 TAP_6
*195 TAP_7
*196 TAP_8
*197 TAP_9
*198 TAP_10
*199 TAP_11
*200 TAP_12
*201 input1
*202 input2
*203 input3
*204 input4
*205 input5
*206 input6
*207 input7
*208 input8
*209 output9
*210 output10
*211 output11
*212 output12
*213 output13
*214 output14
*215 output15
*216 rebuffer1
*217 FILLER_0_0_0
*218 FILLER_0_0_52
*219 FILLER_0_2_0
*220 FILLER_0_2_28
*221 FILLER_0_2_42
*222 FILLER_0_2_51
*223 FILLER_0_2_57
*224 FILLER_0_3_10
*225 FILLER_0_3_31
*226 FILLER_0_3_65
*227 FILLER_0_4_10
*228 FILLER_0_4_28
*229 FILLER_0_4_31
*230 FILLER_0_4_35
*231 FILLER_0_4_39
*232 FILLER_0_4_47
*233 FILLER_0_5_18
*234 FILLER_0_5_22
*235 FILLER_0_5_37
*236 FILLER_0_5_41
*237 FILLER_0_5_43
*238 FILLER_0_5_47
*239 FILLER_0_5_66
*240 FILLER_0_6_0
*241 FILLER_0_6_4
*242 FILLER_0_6_6
*243 FILLER_0_6_22
*244 FILLER_0_6_29
*245 FILLER_0_6_31
*246 FILLER_0_6_33
*247 FILLER_0_6_38
*248 FILLER_0_6_49
*249 FILLER_0_6_65
*250 FILLER_0_7_0
*251 FILLER_0_7_4
*252 FILLER_0_7_6
*253 FILLER_0_7_13
*254 FILLER_0_7_18
*255 FILLER_0_7_22
*256 FILLER_0_7_27
*257 FILLER_0_7_35
*258 FILLER_0_7_45
*259 FILLER_0_7_61
*260 FILLER_0_7_65
*261 FILLER_0_8_0
*262 FILLER_0_8_4
*263 FILLER_0_8_31
*264 FILLER_0_8_37
*265 FILLER_0_8_41
*266 FILLER_0_8_47
*267 FILLER_0_8_49
*268 FILLER_0_9_0
*269 FILLER_0_9_8
*270 FILLER_0_9_12
*271 FILLER_0_9_17
*272 FILLER_0_9_19
*273 FILLER_0_9_39
*274 FILLER_0_9_61
*275 FILLER_0_9_65
*276 FILLER_0_10_0
*277 FILLER_0_10_8
*278 FILLER_0_10_10
*279 FILLER_0_10_61
*280 FILLER_0_10_65

*PORTS
CK I
GND I
VDD I
v0 I
v1 I
v13_D_10 O
v13_D_11 O
v13_D_12 O
v13_D_6 O
v13_D_7 O
v13_D_8 O
v13_D_9 O
v2 I
v3 I
v4 I
v5 I
v6 I

*D_NET *1 0.000751936
*CONN
*P CK I
*I *201:A I *D sky130_fd_sc_hd__dlymetal6s2s_1
*CAP
1 CK 0.000341333
2 *201:A 0.000341333
3 *201:A *40:38 6.92705e-05
*RES
1 CK *201:A 23.0707 
*END

*D_NET *2 0.000225358
*CONN
*I *190:D I *D sky130_fd_sc_hd__dfxtp_4
*I *147:Y O *D sky130_fd_sc_hd__a21oi_1
*CAP
1 *190:D 0.000110068
2 *147:Y 0.000110068
3 *190:D *147:B1 5.22164e-06
4 *190:D *40:53 0
*RES
1 *147:Y *190:D 29.9505 
*END

*D_NET *3 0.0152269
*CONN
*I *180:B I *D sky130_fd_sc_hd__nor2_1
*I *186:A1 I *D sky130_fd_sc_hd__a211o_1
*I *178:B1 I *D sky130_fd_sc_hd__o21ai_0
*I *175:B1 I *D sky130_fd_sc_hd__a21oi_1
*I *170:A2 I *D sky130_fd_sc_hd__o21ai_0
*I *141:A I *D sky130_fd_sc_hd__nor3_1
*I *152:B1_N I *D sky130_fd_sc_hd__o21bai_1
*I *146:B I *D sky130_fd_sc_hd__nand3_1
*I *166:B1_N I *D sky130_fd_sc_hd__a21boi_0
*I *145:A_N I *D sky130_fd_sc_hd__nand3b_1
*I *162:B I *D sky130_fd_sc_hd__and2b_1
*I *134:A I *D sky130_fd_sc_hd__nor3_1
*I *154:C I *D sky130_fd_sc_hd__nand4_1
*I *109:B I *D sky130_fd_sc_hd__nor2_2
*I *150:B I *D sky130_fd_sc_hd__nand3_1
*I *190:Q O *D sky130_fd_sc_hd__dfxtp_4
*CAP
1 *180:B 5.612e-05
2 *186:A1 9.0804e-05
3 *178:B1 0.000273734
4 *175:B1 7.31267e-06
5 *170:A2 0
6 *141:A 0
7 *152:B1_N 0
8 *146:B 1.90605e-05
9 *166:B1_N 0
10 *145:A_N 0.000225758
11 *162:B 0
12 *134:A 0.00030392
13 *154:C 0.000208145
14 *109:B 0
15 *150:B 0.000113844
16 *190:Q 0.000328451
17 *3:199 0.000683775
18 *3:176 0.00161574
19 *3:147 0.00113802
20 *3:132 0.000467255
21 *3:125 0.000269874
22 *3:89 0.000450224
23 *3:85 0.000446792
24 *3:61 0.000432248
25 *3:35 0.000280602
26 *3:31 0.000310067
27 *3:29 0.000348328
28 *3:25 0.000222057
29 *3:12 0.000519967
30 *3:10 0.000676469
31 *134:A *204:A 0
32 *134:A *5:42 0.000143032
33 *134:A *11:27 0.000107496
34 *134:A *51:12 0.000310094
35 *134:A *97:25 0.000105636
36 *145:A_N *51:12 0
37 *146:B *23:12 4.80635e-06
38 *150:B *152:A1 0.000137124
39 *150:B *23:32 0
40 *154:C *148:A 0.000111708
41 *154:C *148:B 8.62625e-06
42 *154:C *157:A1 0.000114518
43 *154:C *5:20 0.000107496
44 *154:C *13:111 7.50722e-05
45 *154:C *13:152 5.05252e-05
46 *154:C *23:32 4.23384e-05
47 *154:C *32:17 1.61631e-05
48 *175:B1 *169:A1 2.41483e-05
49 *175:B1 *7:27 6.50586e-05
50 *178:B1 *111:D 5.71148e-06
51 *178:B1 *183:C1 6.50727e-05
52 *178:B1 *208:A 4.07355e-05
53 *178:B1 *7:37 1.5714e-05
54 *178:B1 *13:23 0
55 *178:B1 *22:53 0.000171273
56 *178:B1 *23:64 1.65885e-05
57 *178:B1 *98:26 5.99105e-05
58 *186:A1 *123:A2 0
59 *186:A1 *186:B1 0.000196888
60 *3:10 *141:C 1.32772e-05
61 *3:10 *147:B1 0
62 *3:10 *189:D 0
63 *3:10 *193:D 7.89095e-05
64 *3:10 *36:47 0
65 *3:10 *40:38 1.92172e-05
66 *3:10 *40:40 5.56461e-05
67 *3:12 *141:C 0.000119282
68 *3:12 *36:47 0
69 *3:25 *152:A1 0.000216458
70 *3:25 *152:A2 4.03336e-05
71 *3:31 *153:A1 4.47578e-05
72 *3:31 *13:152 7.65861e-05
73 *3:31 *23:32 0
74 *3:31 *36:23 9.31538e-05
75 *3:31 *36:36 1.79196e-05
76 *3:35 *13:152 0.000170592
77 *3:35 *36:23 7.58739e-05
78 *3:61 *11:27 0.000158371
79 *3:61 *11:88 0.000148666
80 *3:85 *153:A1 4.10961e-05
81 *3:85 *189:D 3.31733e-05
82 *3:85 *23:12 7.88576e-05
83 *3:85 *36:36 0.000184616
84 *3:89 *166:A2 5.0715e-05
85 *3:89 *23:12 2.18145e-05
86 *3:125 *141:B 4.58003e-05
87 *3:132 *170:A1 0.000328363
88 *3:147 *170:B1 0.000164829
89 *3:147 *175:A1 8.62625e-06
90 *3:147 *176:B1 2.22198e-05
91 *3:147 *191:D 0.000123516
92 *3:147 *7:16 4.95482e-05
93 *3:176 v13_D_12 9.53164e-05
94 *3:176 *111:D 5.57296e-05
95 *3:176 *169:A1 0.000257684
96 *3:176 *174:A2 2.22342e-05
97 *3:176 *175:A2 0
98 *3:176 *176:A1 0
99 *3:176 *177:A2 8.1321e-05
100 *3:176 *177:B1 0
101 *3:176 *203:A 5.86309e-07
102 *3:176 *211:A 1.13359e-05
103 *3:176 *7:27 9.56078e-05
104 *3:176 *9:14 0.000114584
105 *3:176 *9:42 8.07794e-05
106 *3:176 *9:48 0
107 *3:176 *34:69 1.9946e-05
108 *3:176 *76:10 0
109 *3:199 *122:A 6.9694e-05
110 *3:199 *123:A2 0
111 *3:199 *182:A1 0
112 *3:199 *182:A2 5.19205e-05
113 *3:199 *186:A2 0.000113
114 *3:199 *186:B1 7.84346e-05
115 *3:199 *98:18 0.000112225
*RES
1 *190:Q *3:10 22.3968 
2 *3:10 *3:12 5.98452 
3 *3:12 *150:B 16.8269 
4 *3:12 *3:25 9.66022 
5 *3:25 *3:29 5.2234 
6 *3:29 *3:31 4.32351 
7 *3:31 *3:35 7.57775 
8 *3:35 *109:B 9.24915 
9 *3:35 *154:C 23.7852 
10 *3:31 *3:61 7.99641 
11 *3:61 *134:A 27.8694 
12 *3:61 *162:B 9.24915 
13 *3:29 *3:85 11.0742 
14 *3:85 *3:89 5.18434 
15 *3:89 *145:A_N 23.4354 
16 *3:89 *166:B1_N 9.24915 
17 *3:85 *146:B 9.82786 
18 *3:25 *152:B1_N 9.24915 
19 *3:10 *3:125 7.46592 
20 *3:125 *141:A 9.24915 
21 *3:125 *3:132 4.60562 
22 *3:132 *170:A2 9.24915 
23 *3:132 *3:147 17.956 
24 *3:147 *175:B1 9.97254 
25 *3:147 *3:176 24.1667 
26 *3:176 *178:B1 19.8762 
27 *3:176 *3:199 12.322 
28 *3:199 *186:A1 17.0345 
29 *3:199 *180:B 15.2758 
*END

*D_NET *4 0.000816708
*CONN
*I *189:D I *D sky130_fd_sc_hd__dfxtp_4
*I *153:Y O *D sky130_fd_sc_hd__a21oi_1
*CAP
1 *189:D 0.000221853
2 *153:Y 0.000221853
3 *189:D *147:A2 0
4 *189:D *147:B1 0.000116439
5 *189:D *153:A1 2.3939e-05
6 *189:D *192:CLK 0
7 *189:D *11:21 0
8 *189:D *36:36 4.3116e-06
9 *189:D *36:47 0.000195139
10 *3:10 *189:D 0
11 *3:85 *189:D 3.31733e-05
*RES
1 *153:Y *189:D 34.7286 
*END

*D_NET *5 0.014862
*CONN
*I *170:A1 I *D sky130_fd_sc_hd__o21ai_0
*I *140:A1 I *D sky130_fd_sc_hd__a21oi_1
*I *171:B I *D sky130_fd_sc_hd__nor2_1
*I *154:B I *D sky130_fd_sc_hd__nand4_1
*I *184:A3 I *D sky130_fd_sc_hd__a311oi_2
*I *150:A I *D sky130_fd_sc_hd__nand3_1
*I *109:A I *D sky130_fd_sc_hd__nor2_2
*I *146:A I *D sky130_fd_sc_hd__nand3_1
*I *161:A I *D sky130_fd_sc_hd__inv_1
*I *158:B I *D sky130_fd_sc_hd__nor2_1
*I *131:B I *D sky130_fd_sc_hd__nand2_1
*I *128:A I *D sky130_fd_sc_hd__nor3_4
*I *164:B1 I *D sky130_fd_sc_hd__a21o_1
*I *143:A_N I *D sky130_fd_sc_hd__nand2b_1
*I *189:Q O *D sky130_fd_sc_hd__dfxtp_4
*CAP
1 *170:A1 9.68106e-05
2 *140:A1 0
3 *171:B 8.25779e-05
4 *154:B 0.000445508
5 *184:A3 0.000424187
6 *150:A 0.000187056
7 *109:A 1.76235e-05
8 *146:A 0.000134122
9 *161:A 0.000197866
10 *158:B 0
11 *131:B 0.000132703
12 *128:A 0
13 *164:B1 0.000227639
14 *143:A_N 0.000106904
15 *189:Q 8.18625e-05
16 *5:151 0.00101927
17 *5:147 0.000254126
18 *5:134 0.00026981
19 *5:95 0.000528637
20 *5:66 0.000132703
21 *5:46 0.000446341
22 *5:42 0.000485427
23 *5:32 0.000494418
24 *5:26 0.000446635
25 *5:20 0.000439568
26 *5:14 0.000441588
27 *5:12 0.000367664
28 *5:8 0.000458273
29 *109:A *148:A 0
30 *109:A *160:A3 0
31 *131:B *131:A 0.00015255
32 *131:B *38:12 3.58208e-05
33 *143:A_N *143:B 0.000139696
34 *143:A_N *38:20 1.29291e-05
35 *146:A *192:D 4.12119e-05
36 *146:A *11:21 7.87271e-05
37 *150:A *140:A2 6.50727e-05
38 *150:A *151:A2 4.65954e-06
39 *150:A *11:99 5.853e-05
40 *150:A *11:108 0.000167076
41 *154:B *157:A1 6.36477e-05
42 *154:B *159:C_N 5.51483e-06
43 *154:B *185:A 0.000313495
44 *154:B *36:10 7.6719e-06
45 *154:B *98:44 0.000205101
46 *161:A *163:A3 3.01683e-06
47 *161:A *167:A1 2.41274e-06
48 *161:A *167:A2 3.42979e-05
49 *161:A *167:B1 0.000232489
50 *161:A *192:D 0.000171273
51 *161:A *65:8 0.000143068
52 *164:B1 *143:B 0.000134595
53 *164:B1 *165:C 0.000268798
54 *164:B1 *25:19 8.24698e-05
55 *171:B *113:A 0
56 *171:B *13:95 5.73392e-05
57 *184:A3 *126:A_N 7.23432e-05
58 *184:A3 *126:C 4.76248e-05
59 *184:A3 *136:A1 0.000149268
60 *184:A3 *136:A2 2.15184e-05
61 *184:A3 *184:A2 8.80987e-05
62 *184:A3 *11:112 6.12712e-05
63 *184:A3 *11:116 8.04326e-05
64 *184:A3 *11:133 4.00504e-05
65 *184:A3 *13:27 5.14774e-05
66 *184:A3 *13:29 3.74593e-05
67 *184:A3 *28:10 2.16372e-05
68 *5:8 *193:D 3.34802e-05
69 *5:8 *13:10 0
70 *5:12 *110:A 7.11165e-05
71 *5:12 *140:A2 1.07248e-05
72 *5:12 *141:C 0.000140774
73 *5:12 *13:10 0
74 *5:14 *110:A 6.84784e-06
75 *5:14 *140:A2 0.000127179
76 *5:14 *152:A1 4.3116e-06
77 *5:14 *11:110 4.86688e-06
78 *5:14 *38:28 0.000160899
79 *5:20 *116:A 1.09738e-05
80 *5:20 *119:A 3.02534e-05
81 *5:20 *148:A 6.15022e-05
82 *5:20 *149:B 6.08467e-05
83 *5:20 *11:110 3.01626e-05
84 *5:20 *13:109 4.61534e-05
85 *5:20 *22:6 0.000113968
86 *5:20 *22:19 0.000394588
87 *5:20 *22:38 0.000142194
88 *5:20 *32:17 1.67988e-05
89 *5:20 *38:28 0.000158921
90 *5:26 *160:B1 7.81679e-05
91 *5:26 *32:17 4.0752e-05
92 *5:32 *160:A3 4.61707e-05
93 *5:32 *160:B1 1.41976e-05
94 *5:32 *32:8 1.53438e-05
95 *5:42 v13_D_7 0
96 *5:42 *132:A 1.36556e-05
97 *5:42 *144:B1 0
98 *5:42 *32:8 8.39059e-05
99 *5:42 *41:25 0
100 *5:42 *51:12 8.39326e-05
101 *5:46 *144:B1 0
102 *5:46 *51:12 4.01708e-05
103 *5:95 *163:A1 0
104 *5:95 *167:A1 7.7232e-05
105 *5:95 *167:A3 0.000264838
106 *5:95 *11:21 3.31736e-05
107 *5:95 *97:25 0.000165495
108 *5:134 *11:108 0.000118166
109 *5:134 *13:95 7.22498e-05
110 *5:147 *13:95 1.92172e-05
111 *5:151 *126:C 0.000299922
112 *5:151 *11:110 6.15403e-05
113 *5:151 *11:112 5.64929e-05
114 *134:A *5:42 0.000143032
115 *154:C *5:20 0.000107496
116 *3:132 *170:A1 0.000328363
*RES
1 *189:Q *5:8 15.9964 
2 *5:8 *5:12 7.96307 
3 *5:12 *5:14 3.493 
4 *5:14 *5:20 16.0656 
5 *5:20 *5:26 3.68932 
6 *5:26 *5:32 3.54464 
7 *5:32 *5:42 14.606 
8 *5:42 *5:46 7.1625 
9 *5:46 *143:A_N 12.2151 
10 *5:46 *164:B1 16.6519 
11 *5:42 *5:66 4.5 
12 *5:66 *128:A 9.24915 
13 *5:66 *131:B 13.3484 
14 *5:32 *158:B 9.24915 
15 *5:26 *5:95 11.8036 
16 *5:95 *161:A 21.5799 
17 *5:95 *146:A 17.2421 
18 *5:20 *109:A 9.82786 
19 *5:14 *5:134 7.0654 
20 *5:134 *150:A 14.8675 
21 *5:134 *5:147 0.723396 
22 *5:147 *5:151 10.0693 
23 *5:151 *184:A3 25.6208 
24 *5:151 *154:B 21.1278 
25 *5:147 *171:B 11.6605 
26 *5:12 *140:A1 13.7491 
27 *5:8 *170:A1 17.2456 
*END

*D_NET *6 0.0008616
*CONN
*I *188:D I *D sky130_fd_sc_hd__dfxtp_2
*I *176:X O *D sky130_fd_sc_hd__a31o_1
*CAP
1 *188:D 0.00028404
2 *176:X 0.00028404
3 *188:D *170:B1 5.96936e-05
4 *188:D *176:A3 0.00010167
5 *188:D *188:CLK 7.02539e-05
6 *188:D *191:CLK 5.75903e-05
7 *188:D *13:10 0
8 *188:D *40:12 4.3116e-06
*RES
1 *176:X *188:D 35.3991 
*END

*D_NET *7 0.00924513
*CONN
*I *170:B1 I *D sky130_fd_sc_hd__o21ai_0
*I *172:A I *D sky130_fd_sc_hd__nand4_1
*I *113:B I *D sky130_fd_sc_hd__nand2_1
*I *123:A1 I *D sky130_fd_sc_hd__a21oi_1
*I *125:A I *D sky130_fd_sc_hd__nor2_2
*I *181:B I *D sky130_fd_sc_hd__nor2_1
*I *117:B I *D sky130_fd_sc_hd__nand2_1
*I *186:C1 I *D sky130_fd_sc_hd__a211o_1
*I *173:B I *D sky130_fd_sc_hd__nor2_1
*I *188:Q O *D sky130_fd_sc_hd__dfxtp_2
*CAP
1 *170:B1 0.000143752
2 *172:A 0.000104534
3 *113:B 0
4 *123:A1 0.000292134
5 *125:A 0.000179962
6 *181:B 0.000351322
7 *117:B 1.71889e-05
8 *186:C1 0.000251554
9 *173:B 0
10 *188:Q 0.000358383
11 *7:43 0.000362765
12 *7:41 0.000537153
13 *7:39 0.000371542
14 *7:37 0.000714396
15 *7:31 0.000399945
16 *7:29 0.000310267
17 *7:27 0.000450834
18 *7:16 0.000537186
19 *117:B v13_D_11 6.50727e-05
20 *117:B *29:8 2.16355e-05
21 *123:A1 *123:B1 1.43848e-05
22 *123:A1 *186:A2 0.000213725
23 *123:A1 *209:A 1.83781e-05
24 *123:A1 *98:18 6.3657e-05
25 *125:A *115:A 0.000186021
26 *125:A *135:C 2.65667e-05
27 *125:A *35:6 5.51483e-06
28 *170:B1 *176:A3 3.89332e-06
29 *170:B1 *191:D 5.54078e-05
30 *170:B1 *191:CLK 8.62625e-06
31 *172:A *126:C 0
32 *172:A *172:C 0.000107496
33 *172:A *174:A1 3.75603e-05
34 *172:A *174:B1 5.04829e-06
35 *172:A *175:A1 2.77625e-06
36 *172:A *34:73 0.000107496
37 *172:A *39:69 7.13972e-05
38 *181:B v13_D_10 1.00981e-05
39 *181:B *180:A 5.42587e-05
40 *181:B *187:A1 0.00011971
41 *181:B *209:A 6.92705e-05
42 *186:C1 *117:A 0.000103234
43 *186:C1 *120:B 1.64789e-05
44 *186:C1 *186:A2 6.50586e-05
45 *186:C1 *186:B1 6.99674e-05
46 *186:C1 *208:A 2.12568e-05
47 *7:16 *175:A2 1.07248e-05
48 *7:16 *191:CLK 0
49 *7:16 *9:12 0
50 *7:27 *169:A1 1.19207e-05
51 *7:27 *176:A1 1.19856e-05
52 *7:27 *176:A2 5.04829e-06
53 *7:27 *176:B1 0.000138646
54 *7:29 *172:D 3.31882e-05
55 *7:29 *176:A2 7.77309e-06
56 *7:29 *176:A3 9.35753e-06
57 *7:29 *191:D 8.90468e-05
58 *7:29 *13:21 0
59 *7:29 *23:90 0.000177819
60 *7:31 *172:D 8.61131e-05
61 *7:31 *191:D 2.13007e-05
62 *7:31 *13:21 0
63 *7:31 *23:90 2.95757e-05
64 *7:31 *23:96 5.65463e-05
65 *7:37 *113:A 2.87136e-06
66 *7:37 *122:A 0
67 *7:37 *171:A 1.20478e-05
68 *7:37 *182:A1 7.74397e-05
69 *7:37 *183:B1 1.25395e-05
70 *7:37 *183:B2 0.000122083
71 *7:37 *183:C1 4.3116e-06
72 *7:37 *191:D 6.73139e-05
73 *7:37 *208:A 0.000197707
74 *7:37 *13:21 0
75 *7:37 *13:23 0
76 *7:37 *13:27 0
77 *7:37 *23:64 1.00004e-05
78 *7:37 *34:14 3.37714e-06
79 *7:39 *182:A1 0.000118485
80 *7:39 *186:A2 0
81 *7:39 *208:A 0.00018293
82 *7:41 *186:A2 0
83 *7:41 *187:A2 9.35753e-06
84 *7:41 *208:A 0.000130808
85 *7:43 *186:A2 0
86 *7:43 *187:A2 3.58321e-05
87 *7:43 *208:A 0.000191624
88 *175:B1 *7:27 6.50586e-05
89 *178:B1 *7:37 1.5714e-05
90 *188:D *170:B1 5.96936e-05
91 *3:147 *170:B1 0.000164829
92 *3:147 *7:16 4.95482e-05
93 *3:176 *7:27 9.56078e-05
*RES
1 *188:Q *7:16 26.0002 
2 *7:16 *173:B 9.24915 
3 *7:16 *7:27 9.68434 
4 *7:27 *7:29 4.73876 
5 *7:29 *7:31 2.60143 
6 *7:31 *7:37 9.02563 
7 *7:37 *7:39 3.493 
8 *7:39 *7:41 2.6625 
9 *7:41 *7:43 3.493 
10 *7:43 *186:C1 20.4307 
11 *7:43 *117:B 14.4725 
12 *7:41 *181:B 22.2611 
13 *7:39 *125:A 18.403 
14 *7:37 *123:A1 20.0909 
15 *7:31 *113:B 13.7491 
16 *7:29 *172:A 17.2697 
17 *7:27 *170:B1 18.6595 
*END

*D_NET *8 0.00182084
*CONN
*I *191:D I *D sky130_fd_sc_hd__dfxtp_2
*I *183:Y O *D sky130_fd_sc_hd__o221ai_1
*CAP
1 *191:D 0.00046309
2 *183:Y 0.00046309
3 *191:D *168:A 9.75356e-05
4 *191:D *172:D 0.000110675
5 *191:D *175:A1 0
6 *191:D *176:B1 8.01987e-05
7 *191:D *177:A3 7.00732e-05
8 *191:D *183:B1 7.14746e-05
9 *191:D *22:53 6.50586e-05
10 *191:D *39:57 0
11 *191:D *39:69 1.41706e-05
12 *191:D *76:10 2.18741e-05
13 *191:D *98:26 7.01029e-06
14 *170:B1 *191:D 5.54078e-05
15 *3:147 *191:D 0.000123516
16 *7:29 *191:D 8.90468e-05
17 *7:31 *191:D 2.13007e-05
18 *7:37 *191:D 6.73139e-05
*RES
1 *183:Y *191:D 41.1109 
*END

*D_NET *9 0.0107285
*CONN
*I *111:B I *D sky130_fd_sc_hd__nand4_1
*I *122:A I *D sky130_fd_sc_hd__nand4_1
*I *126:A_N I *D sky130_fd_sc_hd__nand3b_2
*I *115:B I *D sky130_fd_sc_hd__nor2_1
*I *180:A I *D sky130_fd_sc_hd__nor2_1
*I *186:B1 I *D sky130_fd_sc_hd__a211o_1
*I *173:A I *D sky130_fd_sc_hd__nor2_1
*I *169:A1 I *D sky130_fd_sc_hd__o21ai_0
*I *191:Q O *D sky130_fd_sc_hd__dfxtp_2
*CAP
1 *111:B 0
2 *122:A 8.26172e-05
3 *126:A_N 0.000308992
4 *115:B 0
5 *180:A 0.000161037
6 *186:B1 0.000233801
7 *173:A 0
8 *169:A1 0.000482615
9 *191:Q 0.000155124
10 *9:62 0.000672365
11 *9:56 0.00034214
12 *9:54 0.000725884
13 *9:48 0.000910236
14 *9:42 0.000652576
15 *9:14 0.000577587
16 *9:12 0.000427332
17 *122:A *34:14 2.99929e-05
18 *122:A *98:18 2.48583e-05
19 *126:A_N *186:A2 0.000400335
20 *126:A_N *11:112 7.59407e-05
21 *169:A1 *176:A1 0.000100541
22 *169:A1 *176:A2 2.99929e-05
23 *169:A1 *176:B1 2.65831e-05
24 *169:A1 *13:21 0.000146645
25 *169:A1 *23:86 0.000160617
26 *169:A1 *23:90 1.75625e-05
27 *169:A1 *76:10 0.000156168
28 *180:A *187:A1 4.66492e-05
29 *186:B1 v13_D_11 0
30 *186:B1 v13_D_8 0
31 *186:B1 *117:A 6.50727e-05
32 *186:B1 *123:A2 0
33 *186:B1 *186:A2 0.000264598
34 *186:B1 *208:A 0
35 *9:42 *108:A 0.000146645
36 *9:42 *211:A 4.39139e-05
37 *9:48 *108:A 2.34804e-05
38 *9:48 *111:D 5.11322e-06
39 *9:48 *122:C 0.000341619
40 *9:48 *183:A2 9.8217e-05
41 *9:48 *211:A 2.1203e-06
42 *9:48 *22:74 5.94319e-06
43 *9:48 *39:45 0.000279014
44 *9:54 *122:C 0.000160617
45 *9:54 *183:B1 1.58551e-05
46 *9:54 *183:C1 0.000168916
47 *9:54 *208:A 0.000239873
48 *9:54 *22:53 2.77625e-06
49 *9:56 *183:C1 9.24241e-05
50 *9:56 *187:C1 4.33979e-05
51 *9:56 *208:A 0.000137921
52 *9:62 *187:A1 0.000364342
53 *9:62 *187:C1 0.000125695
54 *9:62 *208:A 0.000122098
55 *175:B1 *169:A1 2.41483e-05
56 *181:B *180:A 5.42587e-05
57 *184:A3 *126:A_N 7.23432e-05
58 *186:A1 *186:B1 0.000196888
59 *186:C1 *186:B1 6.99674e-05
60 *3:176 *169:A1 0.000257684
61 *3:176 *9:14 0.000114584
62 *3:176 *9:42 8.07794e-05
63 *3:176 *9:48 0
64 *3:199 *122:A 6.9694e-05
65 *3:199 *186:B1 7.84346e-05
66 *7:16 *9:12 0
67 *7:27 *169:A1 1.19207e-05
68 *7:37 *122:A 0
*RES
1 *191:Q *9:12 21.7744 
2 *9:12 *9:14 2.38721 
3 *9:14 *169:A1 30.581 
4 *9:14 *173:A 9.24915 
5 *9:12 *9:42 10.4845 
6 *9:42 *9:48 14.6749 
7 *9:48 *9:54 12.044 
8 *9:54 *9:56 2.6625 
9 *9:56 *9:62 10.7983 
10 *9:62 *186:B1 27.2532 
11 *9:62 *180:A 12.9626 
12 *9:56 *115:B 13.7491 
13 *9:54 *126:A_N 28.7715 
14 *9:48 *122:A 20.4964 
15 *9:42 *111:B 13.7491 
*END

*D_NET *10 0.00122238
*CONN
*I *192:D I *D sky130_fd_sc_hd__dfxtp_4
*I *167:Y O *D sky130_fd_sc_hd__a311oi_1
*CAP
1 *192:D 0.000324785
2 *167:Y 0.000324785
3 *192:D *147:A2 5.39463e-05
4 *192:D *166:A1 3.55432e-05
5 *192:D *167:A1 3.99086e-06
6 *192:D *167:B1 0.000266846
7 *192:D *11:21 0
8 *192:D *51:12 0
9 *146:A *192:D 4.12119e-05
10 *161:A *192:D 0.000171273
*RES
1 *167:Y *192:D 36.9792 
*END

*D_NET *11 0.012921
*CONN
*I *110:A I *D sky130_fd_sc_hd__nor2_4
*I *178:A1 I *D sky130_fd_sc_hd__o21ai_0
*I *135:A I *D sky130_fd_sc_hd__nand3_1
*I *184:A1 I *D sky130_fd_sc_hd__a311oi_2
*I *118:A I *D sky130_fd_sc_hd__or3_4
*I *136:A1 I *D sky130_fd_sc_hd__o22a_1
*I *139:A I *D sky130_fd_sc_hd__nand2_1
*I *151:B1 I *D sky130_fd_sc_hd__a21o_1
*I *158:A I *D sky130_fd_sc_hd__nor2_1
*I *159:B I *D sky130_fd_sc_hd__nor3b_1
*I *165:A I *D sky130_fd_sc_hd__nand3_1
*I *132:A I *D sky130_fd_sc_hd__nor2_1
*I *127:A_N I *D sky130_fd_sc_hd__nand2b_4
*I *145:C I *D sky130_fd_sc_hd__nand3b_1
*I *192:Q O *D sky130_fd_sc_hd__dfxtp_4
*CAP
1 *110:A 0.000214181
2 *178:A1 6.89404e-05
3 *135:A 2.71021e-05
4 *184:A1 0
5 *118:A 0.000209706
6 *136:A1 0.000187377
7 *139:A 0
8 *151:B1 1.93962e-05
9 *158:A 0
10 *159:B 5.60031e-05
11 *165:A 0
12 *132:A 0.000340507
13 *127:A_N 0.000358896
14 *145:C 0.000477396
15 *192:Q 0.000275871
16 *11:133 0.000319012
17 *11:116 0.000372318
18 *11:112 0.00031845
19 *11:110 0.000417557
20 *11:108 0.000370584
21 *11:99 0.000277649
22 *11:88 0.000405737
23 *11:67 0.00010977
24 *11:33 0.000736119
25 *11:29 0.000158062
26 *11:27 0.000237765
27 *11:21 0.000548004
28 *11:6 0.000998892
29 *110:A *126:C 3.12316e-05
30 *110:A *140:A2 5.53934e-05
31 *110:A *13:10 3.67528e-06
32 *110:A *13:21 0
33 *118:A v13_D_11 6.92705e-05
34 *118:A *118:C 3.42335e-05
35 *118:A *136:A2 0.000134323
36 *118:A *184:B1 0
37 *118:A *187:B1 0
38 *118:A *29:8 2.65831e-05
39 *118:A *30:8 0
40 *127:A_N *144:A1 3.11495e-05
41 *127:A_N *165:C 0.000336155
42 *127:A_N *212:A 5.56461e-05
43 *127:A_N *37:10 0.000299901
44 *127:A_N *51:12 8.05326e-05
45 *127:A_N *97:29 0
46 *132:A v13_D_7 0
47 *132:A *134:C 6.50727e-05
48 *132:A *41:25 3.20069e-06
49 *132:A *41:36 7.62817e-05
50 *135:A *135:B 6.50727e-05
51 *135:A *135:C 0.000113968
52 *136:A1 *136:A2 7.2744e-05
53 *136:A1 *156:B2 7.34948e-06
54 *136:A1 *184:A2 2.43991e-05
55 *145:C *147:A1 1.75637e-06
56 *145:C *192:CLK 9.0828e-05
57 *145:C *51:12 5.0715e-05
58 *151:B1 *151:A2 3.01683e-06
59 *159:B *159:A 0.000169041
60 *178:A1 *119:A 1.43983e-05
61 *178:A1 *208:A 2.16355e-05
62 *178:A1 *22:53 0.000207266
63 *11:6 *141:B 2.85274e-05
64 *11:21 *147:A2 1.79672e-05
65 *11:21 *167:A1 0.000144546
66 *11:21 *36:23 0.000200251
67 *11:21 *36:36 0.000208961
68 *11:27 *167:A3 0.000195139
69 *11:27 *13:152 3.31745e-05
70 *11:27 *51:12 0
71 *11:27 *97:25 0.000154145
72 *11:29 *167:A3 0.000107561
73 *11:29 *51:12 0
74 *11:33 *51:12 2.1558e-06
75 *11:67 *167:A3 2.26985e-05
76 *11:67 *97:29 1.78279e-05
77 *11:88 *153:A1 1.84293e-05
78 *11:88 *13:152 7.89747e-05
79 *11:99 *151:A2 4.6535e-05
80 *11:99 *13:95 5.481e-05
81 *11:108 *13:95 7.68538e-06
82 *11:110 *116:A 2.24484e-05
83 *11:110 *126:C 3.81416e-06
84 *11:112 *116:A 0.000187127
85 *11:112 *116:B 1.27966e-05
86 *11:112 *28:10 5.64929e-05
87 *11:116 *28:10 4.55535e-05
88 *11:133 *184:A2 8.14194e-05
89 *11:133 *184:B1 0
90 *126:A_N *11:112 7.59407e-05
91 *134:A *11:27 0.000107496
92 *146:A *11:21 7.87271e-05
93 *150:A *11:99 5.853e-05
94 *150:A *11:108 0.000167076
95 *184:A3 *136:A1 0.000149268
96 *184:A3 *11:112 6.12712e-05
97 *184:A3 *11:116 8.04326e-05
98 *184:A3 *11:133 4.00504e-05
99 *189:D *11:21 0
100 *192:D *11:21 0
101 *3:61 *11:27 0.000158371
102 *3:61 *11:88 0.000148666
103 *5:12 *110:A 7.11165e-05
104 *5:14 *110:A 6.84784e-06
105 *5:14 *11:110 4.86688e-06
106 *5:20 *11:110 3.01626e-05
107 *5:42 *132:A 1.36556e-05
108 *5:95 *11:21 3.31736e-05
109 *5:134 *11:108 0.000118166
110 *5:151 *11:110 6.15403e-05
111 *5:151 *11:112 5.64929e-05
*RES
1 *192:Q *11:6 13.3002 
2 *11:6 *145:C 17.0618 
3 *11:6 *11:21 18.3065 
4 *11:21 *11:27 10.9348 
5 *11:27 *11:29 2.03962 
6 *11:29 *11:33 1.11141 
7 *11:33 *127:A_N 26.4099 
8 *11:33 *132:A 28.3563 
9 *11:29 *11:67 6.6129 
10 *11:67 *165:A 9.24915 
11 *11:67 *159:B 11.0817 
12 *11:27 *158:A 13.7491 
13 *11:21 *11:88 4.05102 
14 *11:88 *151:B1 9.82786 
15 *11:88 *11:99 6.29355 
16 *11:99 *139:A 9.24915 
17 *11:99 *11:108 6.3326 
18 *11:108 *11:110 3.493 
19 *11:110 *11:112 7.23027 
20 *11:112 *11:116 6.74725 
21 *11:116 *136:A1 13.3484 
22 *11:116 *11:133 6.77949 
23 *11:133 *118:A 19.2846 
24 *11:133 *184:A1 13.7491 
25 *11:112 *135:A 15.0271 
26 *11:110 *178:A1 16.1364 
27 *11:108 *110:A 20.5642 
*END

*D_NET *12 0.000603102
*CONN
*I *193:D I *D sky130_fd_sc_hd__dfxtp_4
*I *141:Y O *D sky130_fd_sc_hd__nor3_1
*CAP
1 *193:D 0.000212827
2 *141:Y 0.000212827
3 *193:D *13:10 0
4 *193:D *40:38 6.50586e-05
5 *3:10 *193:D 7.89095e-05
6 *5:8 *193:D 3.34802e-05
*RES
1 *141:Y *193:D 33.791 
*END

*D_NET *13 0.0146677
*CONN
*I *139:B I *D sky130_fd_sc_hd__nand2_1
*I *152:A1 I *D sky130_fd_sc_hd__o21bai_1
*I *149:B I *D sky130_fd_sc_hd__nor2_1
*I *162:A_N I *D sky130_fd_sc_hd__and2b_1
*I *163:A1 I *D sky130_fd_sc_hd__a31oi_1
*I *131:A I *D sky130_fd_sc_hd__nand2_1
*I *155:A I *D sky130_fd_sc_hd__and2_0
*I *142:A_N I *D sky130_fd_sc_hd__nand2b_1
*I *178:A2 I *D sky130_fd_sc_hd__o21ai_0
*I *156:A1 I *D sky130_fd_sc_hd__o221ai_1
*I *115:A I *D sky130_fd_sc_hd__nor2_1
*I *184:A2 I *D sky130_fd_sc_hd__a311oi_2
*I *110:B I *D sky130_fd_sc_hd__nor2_4
*I *193:Q O *D sky130_fd_sc_hd__dfxtp_4
*CAP
1 *139:B 3.39522e-05
2 *152:A1 0.000133895
3 *149:B 2.28214e-05
4 *162:A_N 0
5 *163:A1 7.82534e-05
6 *131:A 0.000417638
7 *155:A 0
8 *142:A_N 0.000131803
9 *178:A2 0
10 *156:A1 7.05429e-05
11 *115:A 0.000230929
12 *184:A2 0.000176253
13 *110:B 0
14 *193:Q 0.000509525
15 *13:177 0.000200996
16 *13:152 0.000435865
17 *13:113 0.000222233
18 *13:111 0.00069177
19 *13:109 0.000858891
20 *13:103 0.000503598
21 *13:95 0.000602089
22 *13:29 0.000452041
23 *13:27 0.000327875
24 *13:23 0.000300103
25 *13:21 0.000825055
26 *13:10 0.000841209
27 *115:A *116:B 1.41689e-05
28 *115:A *135:C 2.10532e-05
29 *115:A *184:B1 5.41377e-05
30 *115:A *187:C1 5.41377e-05
31 *115:A *17:8 0.000154145
32 *115:A *35:6 1.61631e-05
33 *131:A *216:A 0.000224395
34 *131:A *38:12 7.80797e-05
35 *131:A *97:44 0.000234352
36 *142:A_N *127:B 0.000169078
37 *142:A_N *142:B 0
38 *142:A_N *164:A1 2.65118e-05
39 *142:A_N *164:A2 7.03999e-05
40 *152:A1 *152:A2 0.000263107
41 *152:A1 *23:32 0
42 *152:A1 *38:28 6.31809e-05
43 *156:A1 *116:B 0.000313509
44 *156:A1 *135:B 1.00981e-05
45 *156:A1 *135:C 0.00030216
46 *156:A1 *156:A2 3.75603e-05
47 *156:A1 *156:B1 0
48 *163:A1 *163:B1 5.88662e-05
49 *163:A1 *166:A1 3.31733e-05
50 *163:A1 *167:A3 5.68225e-06
51 *163:A1 *51:12 6.14273e-05
52 *184:A2 *136:A2 0.000163476
53 *184:A2 *184:B1 4.6156e-05
54 *184:A2 *184:C1 2.97421e-05
55 *13:10 *176:A3 0
56 *13:10 *40:12 0
57 *13:10 *40:38 9.9028e-05
58 *13:21 *113:A 7.12632e-06
59 *13:21 *126:C 7.51886e-05
60 *13:21 *171:A 1.30711e-05
61 *13:21 *176:A2 1.32509e-05
62 *13:21 *176:A3 5.22654e-06
63 *13:21 *23:90 0
64 *13:21 *23:96 0
65 *13:23 *126:C 4.37999e-05
66 *13:27 *126:C 0.000188641
67 *13:27 *179:B 2.46336e-05
68 *13:27 *183:C1 0
69 *13:27 *34:35 0.000174759
70 *13:29 *184:B1 2.19276e-05
71 *13:29 *34:35 5.41227e-05
72 *13:103 *150:C 6.16721e-05
73 *13:103 *156:C1 6.43404e-05
74 *13:103 *23:32 0
75 *13:103 *98:32 2.95798e-05
76 *13:109 *148:A 0.000209872
77 *13:111 *142:B 1.29348e-05
78 *13:111 *155:B 3.20069e-06
79 *13:111 *156:C1 0
80 *13:111 *157:A2 6.31809e-05
81 *13:111 *212:A 0
82 *13:111 *23:32 8.21849e-06
83 *13:111 *32:27 0.000284063
84 *13:113 *155:B 6.14273e-05
85 *13:113 *164:A1 2.5386e-05
86 *13:113 *164:A2 3.31733e-05
87 *13:113 *212:A 0
88 *13:152 *148:B 1.55462e-05
89 *13:152 *163:B1 0.000162583
90 *13:152 *23:32 5.29898e-05
91 *13:152 *36:23 9.57557e-06
92 *13:152 *97:25 0.000264572
93 *13:177 *150:C 1.93122e-05
94 *13:177 *38:28 1.5147e-05
95 *13:177 *98:32 4.51619e-05
96 *110:A *13:10 3.67528e-06
97 *110:A *13:21 0
98 *125:A *115:A 0.000186021
99 *131:B *131:A 0.00015255
100 *136:A1 *184:A2 2.43991e-05
101 *150:B *152:A1 0.000137124
102 *154:C *13:111 7.50722e-05
103 *154:C *13:152 5.05252e-05
104 *169:A1 *13:21 0.000146645
105 *171:B *13:95 5.73392e-05
106 *178:B1 *13:23 0
107 *184:A3 *184:A2 8.80987e-05
108 *184:A3 *13:27 5.14774e-05
109 *184:A3 *13:29 3.74593e-05
110 *188:D *13:10 0
111 *193:D *13:10 0
112 *3:25 *152:A1 0.000216458
113 *3:31 *13:152 7.65861e-05
114 *3:35 *13:152 0.000170592
115 *5:8 *13:10 0
116 *5:12 *13:10 0
117 *5:14 *152:A1 4.3116e-06
118 *5:20 *149:B 6.08467e-05
119 *5:20 *13:109 4.61534e-05
120 *5:95 *163:A1 0
121 *5:134 *13:95 7.22498e-05
122 *5:147 *13:95 1.92172e-05
123 *7:29 *13:21 0
124 *7:31 *13:21 0
125 *7:37 *13:21 0
126 *7:37 *13:23 0
127 *7:37 *13:27 0
128 *11:27 *13:152 3.31745e-05
129 *11:88 *13:152 7.89747e-05
130 *11:99 *13:95 5.481e-05
131 *11:108 *13:95 7.68538e-06
132 *11:133 *184:A2 8.14194e-05
*RES
1 *193:Q *13:10 25.0276 
2 *13:10 *110:B 13.7491 
3 *13:10 *13:21 9.35539 
4 *13:21 *13:23 2.24725 
5 *13:23 *13:27 7.13257 
6 *13:27 *13:29 1.832 
7 *13:29 *184:A2 20.3261 
8 *13:29 *115:A 29.1279 
9 *13:27 *156:A1 18.2342 
10 *13:23 *178:A2 13.7491 
11 *13:21 *13:95 15.2694 
12 *13:95 *13:103 8.6281 
13 *13:103 *13:109 10.0943 
14 *13:109 *13:111 6.39977 
15 *13:111 *13:113 3.07775 
16 *13:113 *142:A_N 18.1459 
17 *13:113 *155:A 13.7491 
18 *13:111 *131:A 25.2029 
19 *13:109 *13:152 15.9234 
20 *13:152 *163:A1 21.3269 
21 *13:152 *162:A_N 9.24915 
22 *13:103 *149:B 9.97254 
23 *13:95 *13:177 1.41674 
24 *13:177 *152:A1 19.7687 
25 *13:177 *139:B 14.4819 
*END

*D_NET *16 0.00118927
*CONN
*I *182:B1 I *D sky130_fd_sc_hd__o21ai_0