*SPEF "1481-1998"
*DESIGN "s386"
*DATE "Tue May 16 20:38:13 2023"
*VENDOR "Synopsys, Inc."
*PROGRAM "icc_shell"
*VERSION "Q-2019.12"
*DESIGN_FLOW "PIN_CAP NONE"
*DIVIDER /
*DELIMITER :
*BUS_DELIMITER [ ]
*T_UNIT 1 NS
*C_UNIT 1 FF
*R_UNIT 1 OHM
*L_UNIT 1 HENRY

*NAME_MAP
*1 GND
*2 VDD_
*3 VSS
*4 v5
*5 v4
*6 v3
*7 v2
*8 v1
*9 v0
*10 CK
*11 VDD
*12 v13_D_9
*13 v13_D_8
*14 v13_D_7
*15 v13_D_6
*16 v13_D_12
*17 v13_D_11
*18 v13_D_10
*19 v6
*20 Lv13_D_0
*21 DFF_5/q_reg
*22 U79
*23 DFF_4/q_reg
*24 DFF_3/q_reg
*25 DFF_2/q_reg
*26 DFF_1/q_reg
*27 DFF_0/q_reg
*28 v7
*29 U142
*30 U111
*31 U108
*32 U110
*33 U116
*34 U115
*35 U94
*36 Lv13_D_1
*37 U78
*38 v8
*39 U127
*40 U125
*41 U109
*42 U85
*43 Lv13_D_2
*44 U134
*45 v9
*46 U146
*47 U106
*48 U91
*49 U83
*50 Lv13_D_3
*51 U120
*52 v10
*53 U144
*54 U123
*55 U96
*56 U80
*57 Lv13_D_4
*58 U140
*59 v11
*60 U84
*61 U124
*62 U102
*63 U76
*64 U141
*65 U101
*66 Lv13_D_5
*67 U138
*68 v12
*69 U107
*70 U92
*71 n39
*72 U150
*73 U135
*74 n4
*75 U95
*76 U75
*77 n51
*78 U104
*79 U98
*80 n65
*81 U149
*82 n67
*83 U81
*84 n28
*85 U148
*86 n1
*87 U139
*88 n46
*89 U145
*90 U143
*91 n44
*92 n13
*93 U82
*94 n17
*95 U86
*96 Lv13_D_12
*97 U119
*98 U93
*99 Lv13_D_10
*100 n52
*101 n31
*102 U137
*103 U136
*104 U118
*105 n33
*106 U87
*107 n15
*108 U103
*109 U88
*110 n32
*111 n34
*112 U89
*113 n23
*114 U77
*115 n25
*116 U114
*117 Lv13_D_6
*118 n29
*119 n5
*120 U129
*121 n30
*122 n41
*123 U132
*124 U122
*125 U97
*126 n45
*127 n16
*128 U133
*129 U128
*130 U126
*131 n21
*132 U112
*133 n37
*134 Lv13_D_11
*135 n18
*136 U131
*137 U130
*138 n47
*139 U117
*140 Lv13_D_8
*141 n19
*142 Lv13_D_9
*143 n24
*144 n64
*145 n60
*146 n43
*147 U121
*148 n3
*149 n42
*150 U99
*151 n40
*152 U105
*153 n8
*154 U113
*155 n48
*156 n20
*157 n26
*158 U90
*159 n27
*160 n22
*161 n14
*162 n59
*163 n55
*164 n57
*165 n58
*166 n36
*167 U100
*168 n50
*169 U74
*170 n56
*171 n54
*172 n53
*173 n2
*174 n9
*175 n61
*176 n49
*177 n10
*178 n38
*179 n35
*180 Lv13_D_7
*181 n71
*182 n72
*183 n73

*PORTS
*1 I *L 0.0 *S 0.0 0.0
*2 I *L 0.0 *S 0.0 0.0
*3 I *L 0.0 *S 0.0 0.0
*4 I *L 0.0 *S 0.0 0.0
*5 I *L 0.0 *S 0.0 0.0
*6 I *L 0.0 *S 0.0 0.0
*7 I *L 0.0 *S 0.0 0.0
*8 I *L 0.0 *S 0.0 0.0
*9 I *L 0.0 *S 0.0 0.0
*10 I *L 0.0 *S 0.0 0.0
*11 I *L 0.0 *S 0.0 0.0
*12 O *L 200.0 *S 0.0 0.0
*13 O *L 200.0 *S 0.0 0.0
*14 O *L 200.0 *S 0.0 0.0
*15 O *L 200.0 *S 0.0 0.0
*16 O *L 200.0 *S 0.0 0.0
*17 O *L 200.0 *S 0.0 0.0
*18 O *L 200.0 *S 0.0 0.0
*19 I *L 0.0 *S 0.0 0.0

*D_NET *20 0.7886896

*CONN
*I *21:D I *L 496.4084 *C 19.775 22.425
*I *22:Y O *L 0.0 *D OA21X1_RVT *C 16.557 17.915
*N *20:3 *C 16.552 18.224
*N *20:4 *C 16.552 18.224
*N *20:5 *C 16.552 22.328
*N *20:6 *C 16.552 22.328
*N *20:7 *C 19.592 22.328
*N *20:8 *C 19.592 22.328
*N *20:9 *C 19.592 22.328
*N *20:10 *C 16.532 18.201
*N *20:11 *C 16.552 18.27

*CAP
1 *21:D 0.0145136
2 *22:Y 0.03055969
3 *20:3 0.01030978
4 *20:4 0.01894505
5 *20:5 0.1306996
6 *20:6 0.1743801
7 *20:7 0.1306996
8 *20:8 0.014937
9 *20:9 0.0294506
10 *20:10 0.04950475
11 *20:11 0.1846898

*RES
1 *20:3 *20:4 1.0
2 *20:5 *20:6 0.5
3 *20:7 *20:8 0.5
4 *20:8 *20:9 1.0
5 *22:Y *20:10 0.2575556
6 *20:10 *20:4 0.04704762
7 *20:9 *21:D 0.2352941
8 *20:3 *20:11 0.02738095
9 *20:11 *20:6 7.149764
10 *20:5 *20:7 5.33375

*END

*D_NET *10 3.608119

*CONN
*I *21:CLK I *L 619.3525 *C 20.048 23.24
*I *23:CLK I *L 619.3525 *C 20.048 19.896
*I *24:CLK I *L 619.3525 *C 14.728 23.24
*I *25:CLK I *L 619.3525 *C 16.096 19.896
*I *26:CLK I *L 619.3525 *C 14.88 6.52
*I *27:CLK I *L 619.3525 *C 20.048 10.168
*P *10 I *C 18.68 0.028
*N *10:8 *C 18.68 0.136
*N *10:9 *C 18.68 0.136
*N *10:10 *C 18.832 0.136
*N *10:11 *C 18.832 0.136
*N *10:12 *C 18.832 6.216
*N *10:13 *C 18.832 6.216
*N *10:14 *C 20.048 23.24
*N *10:15 *C 20.048 23.24
*N *10:16 *C 20.048 23.24
*N *10:17 *C 20.048 19.896
*N *10:18 *C 20.048 19.896
*N *10:19 *C 20.048 19.896
*N *10:20 *C 16.096 19.896
*N *10:21 *C 16.096 19.896
*N *10:22 *C 16.096 19.896
*N *10:23 *C 16.096 19.592
*N *10:24 *C 16.096 19.592
*N *10:25 *C 14.88 6.52
*N *10:26 *C 14.88 6.52
*N *10:27 *C 14.88 6.52
*N *10:28 *C 14.88 6.216
*N *10:29 *C 14.88 6.216
*N *10:30 *C 20.048 10.168
*N *10:31 *C 20.048 10.168
*N *10:32 *C 20.048 10.168
*N *10:33 *C 20.048 6.216
*N *10:34 *C 20.048 6.216
*N *10:35 *C 20.048 19.592
*N *10:36 *C 20.048 19.592
*N *10:37 *C 14.728 23.24
*N *10:38 *C 14.728 23.24
*N *10:39 *C 14.576 23.24
*N *10:40 *C 14.576 23.24
*N *10:41 *C 14.576 19.592
*N *10:42 *C 14.576 19.592

*CAP
1 *21:CLK 0.0
2 *23:CLK 0.0
3 *24:CLK 0.0
4 *25:CLK 0.0
5 *26:CLK 0.0
6 *27:CLK 0.0
7 *10 0.02134414
8 *10:8 0.01429652
9 *10:9 0.02134414
10 *10:10 0.2519997
11 *10:11 0.01429652
12 *10:12 0.2150592
13 *10:13 0.2519997
14 *10:14 0.01483042
15 *10:15 0.02903566
16 *10:16 0.1517307
17 *10:17 0.01512847
18 *10:18 0.02956166
19 *10:19 0.1641526
20 *10:20 0.01494202
21 *10:21 0.02930177
22 *10:22 0.03436573
23 *10:23 0.2272836
24 *10:24 0.02000598
25 *10:25 0.01485377
26 *10:26 0.02905227
27 *10:27 0.03401953
28 *10:28 0.1599533
29 *10:29 0.01982103
30 *10:30 0.01687169
31 *10:31 0.03255478
32 *10:32 0.5643629
33 *10:33 0.05510588
34 *10:34 0.1663358
35 *10:35 0.1603593
36 *10:36 0.394538
37 *10:37 0.01498679
38 *10:38 0.02920388
39 *10:39 0.1571399
40 *10:40 0.01421709
41 *10:41 0.06692426
42 *10:42 0.1571399

*RES
1 *10:8 *10:9 0.5
2 *10:10 *10:11 0.5
3 *10:12 *10:13 0.5
4 *10:14 *21:CLK 1.0
5 *10:15 *10:14 0.5
6 *10:16 *10:15 0.5
7 *10:17 *23:CLK 1.0
8 *10:18 *10:17 0.5
9 *10:19 *10:18 0.5
10 *10:20 *25:CLK 1.0
11 *10:21 *10:20 0.5
12 *10:22 *10:21 0.5
13 *10:23 *10:24 0.5
14 *10:25 *26:CLK 1.0
15 *10:26 *10:25 0.5
16 *10:27 *10:26 0.5
17 *10:28 *10:29 0.5
18 *10:30 *27:CLK 1.0
19 *10:31 *10:30 0.5
20 *10:32 *10:31 0.5
21 *10:33 *10:34 0.5
22 *10:35 *10:36 0.5
23 *10:37 *24:CLK 1.0
24 *10:38 *10:37 0.5
25 *10:39 *10:40 0.5
26 *10:41 *10:42 0.5
27 *10 *10:9 0.1043326
28 *10:40 *10:38 0.2068502
29 *10:8 *10:11 0.2068502
30 *10:42 *10:39 6.416458
31 *10:29 *10:27 0.4781764
32 *10:24 *10:22 0.4781764
33 *10:10 *10:13 10.7598
34 *10:34 *10:32 6.957797
35 *10:32 *10:36 16.72916
36 *10:36 *10:19 0.4584127
37 *10:19 *10:16 5.874642
38 *10:41 *10:23 2.615968
39 *10:23 *10:35 6.959876
40 *10:28 *10:12 6.959876
41 *10:12 *10:33 2.073522

*END

*D_NET *28 3.048363

*CONN
*I *21:Q O *L 0.0 *D DFFX1_RVT *C 23.088 22.805
*I *29:A1 I *L 450.5898 *C 21.756 17.312
*I *30:A1 I *L 450.5898 *C 16.826 9.408
*I *31:A3 I *L 481.0668 *C 17.768 18.224
*I *32:A3 I *L 492.0692 *C 16.123 7.28
*I *33:A2 I *L 431.813 *C 16.552 16.522
*I *34:A1 I *L 526.317 *C 13.816 7.392
*I *35:A I *L 518.4735 *C 17.16 14.272
*N *28:9 *C 23.088 22.805
*N *28:10 *C 21.756 17.312
*N *28:11 *C 16.826 9.408
*N *28:12 *C 16.552 16.522
*N *28:13 *C 17.768 18.224
*N *28:14 *C 16.123 7.28
*N *28:15 *C 22.024 17.768
*N *28:16 *C 22.024 17.768
*N *28:17 *C 17.768 17.768
*N *28:18 *C 17.768 17.768
*N *28:19 *C 17.768 16.552
*N *28:20 *C 17.768 16.552
*N *28:21 *C 16.856 16.552
*N *28:22 *C 16.856 16.552
*N *28:23 *C 16.096 7.128
*N *28:24 *C 16.096 7.128
*N *28:25 *C 13.664 7.128
*N *28:26 *C 13.664 7.128
*N *28:27 *C 13.36 7.432
*N *28:28 *C 13.36 7.432
*N *28:29 *C 17.16 16.552
*N *28:30 *C 17.16 16.552
*N *28:31 *C 17.16 14.272
*N *28:32 *C 13.816 7.432
*N *28:33 *C 13.407 7.432
*N *28:34 *C 13.664 7.432
*N *28:35 *C 16.123 7.219
*N *28:36 *C 16.123 7.32
*N *28:37 *C 16.096 9.408
*N *28:38 *C 16.109 7.374
*N *28:39 *C 16.78 9.408
*N *28:40 *C 16.872 9.408
*N *28:41 *C 17.16 9.408
*N *28:42 *C 17.16 14.226
*N *28:43 *C 17.16 14.318
*N *28:44 *C 17.768 18.178
*N *28:45 *C 21.802 17.312
*N *28:46 *C 22.024 17.312
*N *28:47 *C 22.024 22.784
*N *28:48 *C 23.041 22.784

*CAP
1 *21:Q 0.0
2 *29:A1 0.0
3 *30:A1 0.0
4 *31:A3 0.0
5 *32:A3 0.0
6 *33:A2 0.0
7 *34:A1 0.04264024
8 *35:A 0.0
9 *28:9 0.004578677
10 *28:10 0.01275032
11 *28:11 0.0153033
12 *28:12 0.02533372
13 *28:13 0.01027211
14 *28:14 0.01918205
15 *28:15 0.1372376
16 *28:16 0.2398492
17 *28:17 0.1372376
18 *28:18 0.077057
19 *28:19 0.03152687
20 *28:20 0.0631562
21 *28:21 0.01792148
22 *28:22 0.02533372
23 *28:23 0.1075863
24 *28:24 0.008761677
25 *28:25 0.1075863
26 *28:26 0.02017376
27 *28:27 0.005607581
28 *28:28 0.03523248
29 *28:29 0.04944834
30 *28:30 0.08920281
31 *28:31 0.01686434
32 *28:32 0.007407762
33 *28:33 0.03011133
34 *28:34 0.04467751
35 *28:35 0.02476879
36 *28:36 0.0163759
37 *28:37 0.1145248
38 *28:38 0.08913805
39 *28:39 0.0414911
40 *28:40 0.03269381
41 *28:41 0.1524264
42 *28:42 0.1356451
43 *28:43 0.1025546
44 *28:44 0.0241729
45 *28:45 0.02768306
46 *28:46 0.04060367
47 *28:47 0.2555039
48 *28:48 0.0459043
49 *28:42 *77:30 0.1199137
50 *28:41 *77:14 0.1199137
51 *28:15 *101:9 0.05685667
52 *28:17 *101:10 0.05685667
53 *28:37 *145:14 0.07318524
54 *28:44 *7:30 0.004163939
55 *28:18 *7:30 0.004163939
56 *28:30 *7:28 0.1277825

*RES
1 *28:9 *21:Q 1.0
2 *28:10 *29:A1 1.0
3 *28:11 *30:A1 1.0
4 *28:12 *33:A2 1.0
5 *28:13 *31:A3 1.0
6 *28:14 *32:A3 1.0
7 *28:15 *28:16 0.5
8 *28:17 *28:18 0.5
9 *28:19 *28:20 0.5
10 *28:21 *28:22 0.5
11 *28:23 *28:24 0.5
12 *28:25 *28:26 0.5
13 *28:27 *28:28 1.0
14 *28:29 *28:30 0.5
15 *28:31 *35:A 1.0
16 *28:28 *34:A1 0.7885
17 *34:A1 *28:32 0.03541667
18 *28:27 *28:33 0.01424243
19 *28:33 *28:34 0.4096949
20 *28:26 *28:34 0.4643043
21 *28:24 *28:35 0.2162069
22 *28:35 *28:14 0.06432749
23 *28:14 *28:36 0.04761905
24 *28:36 *28:38 0.09500001
25 *28:38 *28:37 3.562565
26 *28:37 *28:39 1.125361
27 *28:39 *28:11 0.05476192
28 *28:12 *28:22 0.3803572
29 *28:11 *28:40 0.05476191
30 *28:40 *28:41 0.4424653
31 *28:42 *28:31 0.05476191
32 *28:31 *28:43 0.05476191
33 *28:41 *28:42 8.504149
34 *28:43 *28:30 3.895184
35 *28:44 *28:13 0.02738095
36 *28:20 *28:18 2.079793
37 *28:18 *28:44 0.6441602
38 *28:10 *28:45 0.02738095
39 *28:45 *28:46 0.3301599
40 *28:46 *28:16 0.7200708
41 *28:16 *28:47 8.858789
42 *28:47 *28:48 1.718751
43 *28:48 *28:9 0.0475
44 *28:25 *28:23 4.249247
45 *28:21 *28:29 0.4696042
46 *28:29 *28:19 1.001152
47 *28:17 *28:15 7.503754

*END

*D_NET *36 0.7524385

*CONN
*I *23:D I *L 496.4084 *C 19.775 19.081
*I *37:Y O *L 0.0 *D AND2X1_RVT *C 21.568 13.798
*N *36:3 *C 21.416 14.728
*N *36:4 *C 21.416 14.728
*N *36:5 *C 21.416 18.376
*N *36:6 *C 21.416 18.376
*N *36:7 *C 19.592 18.376
*N *36:8 *C 19.592 18.376
*N *36:9 *C 19.592 18.984
*N *36:10 *C 19.592 18.984
*N *36:11 *C 19.592 18.938
*N *36:12 *C 21.416 14.774

*CAP
1 *23:D 0.02316364
2 *37:Y 0.0201821
3 *36:3 0.01028416
4 *36:4 0.0201821
5 *36:5 0.08238933
6 *36:6 0.1359002
7 *36:7 0.08238933
8 *36:8 0.02797524
9 *36:9 0.01042164
10 *36:10 0.02316364
11 *36:11 0.03839687
12 *36:12 0.1461843
13 *36:6 *105:12 0.08873911
14 *36:12 *38:10 0.02153348
15 *36:12 *38:11 0.02153348

*RES
1 *36:3 *36:4 1.0
2 *36:5 *36:6 0.5
3 *36:7 *36:8 0.5
4 *36:9 *36:10 1.0
5 *36:10 *23:D 0.2352942
6 *37:Y *36:4 0.3925
7 *36:11 *36:9 0.02738095
8 *36:8 *36:11 0.9200649
9 *36:3 *36:12 0.02738096
10 *36:12 *36:6 6.335884
11 *36:7 *36:5 3.165485

*END

*D_NET *38 1.517036

*CONN
*I *23:Q O *L 0.0 *D DFFX1_RVT *C 23.088 19.46
*I *39:A3 I *L 412.1762 *C 19.146 12.448
*I *40:A1 I *L 503.5117 *C 19.44 15.802
*I *41:A1 I *L 450.5898 *C 20.962 16.08
*I *42:A I *L 688.1503 *C 20.198 15.794
*N *38:6 *C 23.088 19.46
*N *38:7 *C 23.088 16.248
*N *38:8 *C 23.088 16.248
*N *38:9 *C 21.264 16.248
*N *38:10 *C 21.264 16.248
*N *38:11 *C 21.264 16.248
*N *38:12 *C 20.504 15.816
*N *38:13 *C 20.504 15.816
*N *38:14 *C 20.504 16.248
*N *38:15 *C 20.504 16.248
*N *38:16 *C 19.44 12.6
*N *38:17 *C 19.44 12.6
*N *38:18 *C 19.44 15.802
*N *38:19 *C 19.44 16.248
*N *38:20 *C 19.44 16.248
*N *38:21 *C 19.121 12.6
*N *38:22 *C 21.245 16.117
*N *38:23 *C 19.44 12.646
*N *38:24 *C 19.462 15.863
*N *38:25 *C 19.44 13.816
*N *38:26 *C 19.592 13.816
*N *38:27 *C 19.592 15.792
*N *38:28 *C 20.504 15.862
*N *38:29 *C 23.088 19.414

*CAP
1 *23:Q 0.0
2 *39:A3 0.02159272
3 *40:A1 0.0
4 *41:A1 0.03240816
5 *42:A 0.03005037
6 *38:6 0.01052119
7 *38:7 0.07530071
8 *38:8 0.05052442
9 *38:9 0.08977427
10 *38:10 1e-10
11 *38:11 0.007979175
12 *38:12 0.01225382
13 *38:13 0.03005037
14 *38:14 0.0657372
15 *38:15 0.02370107
16 *38:16 0.01340819
17 *38:17 0.02820261
18 *38:18 0.01076966
19 *38:19 0.05126364
20 *38:20 0.03650687
21 *38:21 0.04979532
22 *38:22 0.04038734
23 *38:23 0.05839802
24 *38:24 0.039495
25 *38:25 0.05477663
26 *38:26 0.0838909
27 *38:27 0.08188564
28 *38:28 0.03595488
29 *38:29 0.06104561
30 *38:10 *36:12 0.02153348
31 *38:11 *36:12 0.02153348
32 *38:23 *66:11 0.0596877
33 *38:7 *110:4 0.01376962
34 *38:9 *110:5 0.03612647
35 *38:14 *110:5 0.03727295
36 *38:8 *110:4 0.004137028
37 *38:8 *110:3 0.004137028
38 *38:15 *110:6 0.00546675
39 *38:15 *110:8 0.0003357289
40 *38:28 *110:6 0.0006588615
41 *38:29 *6:12 0.09071185
42 *38:8 *6:5 0.09071185
43 *38:26 *164:5 0.01763961
44 *38:26 *164:10 0.01763961

*RES
1 *38:6 *23:Q 1.0
2 *38:7 *38:8 0.5
3 *38:9 *38:10 0.25
4 *38:10 *38:11 1.0
5 *38:12 *38:13 1.0
6 *38:14 *38:15 0.5
7 *38:16 *38:17 1.0
8 *38:18 *40:A1 1.0
9 *38:19 *38:20 0.5
10 *39:A3 *38:21 0.2078125
11 *38:21 *38:17 0.4507023
12 *42:A *38:13 0.3945295
13 *41:A1 *38:22 0.4395522
14 *38:22 *38:11 0.1045
15 *38:16 *38:23 0.02738095
16 *38:18 *38:24 0.09999999
17 *38:23 *38:25 1.998093
18 *38:25 *38:26 0.1983517
19 *38:24 *38:20 0.6089286
20 *38:18 *38:27 0.2459822
21 *38:26 *38:27 3.428572
22 *38:12 *38:28 0.02738095
23 *38:28 *38:15 0.6159017
24 *38:29 *38:6 0.02738095
25 *38:8 *38:29 5.556959
26 *38:19 *38:14 1.802386
27 *38:14 *38:9 1.264006
28 *38:9 *38:7 3.16288

*END

*D_NET *43 1.346614

*CONN
*I *24:D I *L 496.4084 *C 15.001 22.425
*I *44:Y O *L 0.0 *D NAND3X0_RVT *C 7.432 17.03
*N *43:3 *C 7.736 17.464
*N *43:4 *C 7.736 17.464
*N *43:5 *C 7.584 20.2
*N *43:6 *C 7.584 20.2
*N *43:7 *C 15.488 20.2
*N *43:8 *C 15.488 20.2
*N *43:9 *C 15.488 22.328
*N *43:10 *C 15.488 22.328
*N *43:11 *C 7.584 18.832
*N *43:12 *C 7.736 18.832
*N *43:13 *C 7.736 17.51
*N *43:14 *C 15.488 22.282

*CAP
1 *24:D 0.06132879
2 *44:Y 0.02383105
3 *43:3 0.01133322
4 *43:4 0.02383105
5 *43:5 0.3359998
6 *43:6 0.0552114
7 *43:7 0.3359998
8 *43:8 0.09608784
9 *43:9 0.01028381
10 *43:10 0.06132879
11 *43:11 0.06585656
12 *43:12 0.07923117
13 *43:13 0.07991922
14 *43:14 0.1063717

*RES
1 *43:3 *43:4 1.0
2 *43:5 *43:6 0.5
3 *43:7 *43:8 0.5
4 *43:9 *43:10 1.0
5 *44:Y *43:4 0.1881818
6 *24:D *43:10 0.5211766
7 *43:11 *43:12 0.2138529
8 *43:11 *43:6 2.342711
9 *43:3 *43:13 0.02738095
10 *43:13 *43:12 2.264848
11 *43:14 *43:9 0.02738095
12 *43:8 *43:14 3.61909
13 *43:5 *43:7 14.01424

*END

*D_NET *45 2.280655

*CONN
*I *24:Q O *L 0.0 *D DFFX1_RVT *C 11.688 22.812
*I *46:A1 I *L 526.317 *C 7.432 15.984
*I *47:A2 I *L 499.5953 *C 8.083 9.804
*I *48:A I *L 688.1503 *C 7.43 12.45
*I *49:A2 I *L 519.0556 *C 11.701 17.954
*N *45:6 *C 11.688 22.812
*N *45:7 *C 7.584 12.448
*N *45:8 *C 7.584 12.448
*N *45:9 *C 8.04 9.56
*N *45:10 *C 8.04 9.56
*N *45:11 *C 11.536 17.92
*N *45:12 *C 11.536 17.92
*N *45:13 *C 7.28 15.954
*N *45:14 *C 7.28 15.954
*N *45:15 *C 8.04 15.944
*N *45:16 *C 8.04 15.944
*N *45:17 *C 10.016 15.944
*N *45:18 *C 10.016 15.944
*N *45:19 *C 7.337 15.964
*N *45:20 *C 7.337 15.951
*N *45:21 *C 8.011 9.863
*N *45:22 *C 8.037 9.791
*N *45:23 *C 7.327 15.944
*N *45:24 *C 8.04 12.448
*N *45:25 *C 8.04 9.606
*N *45:26 *C 10.016 19.592
*N *45:27 *C 11.384 19.592
*N *45:28 *C 11.536 19.592
*N *45:29 *C 11.384 22.784
*N *45:30 *C 11.689 22.784
*N *45:31 *C 11.536 17.966

*CAP
1 *24:Q 0.0
2 *46:A1 0.005901799
3 *47:A2 0.01232503
4 *48:A 0.04123126
5 *49:A2 0.01834077
6 *45:6 0.01044332
7 *45:7 0.02993003
8 *45:8 0.04123126
9 *45:9 0.0110568
10 *45:10 0.01047731
11 *45:11 0.01290043
12 *45:12 0.01834077
13 *45:13 0.006317753
14 *45:14 0.01918159
15 *45:15 0.09013962
16 *45:16 0.1229999
17 *45:17 0.09013962
18 *45:18 0.1605161
19 *45:19 0.01270535
20 *45:20 0.02034155
21 *45:21 0.006262257
22 *45:22 0.01654009
23 *45:23 0.05009456
24 *45:24 0.1634
25 *45:25 0.06530365
26 *45:26 0.2384702
27 *45:27 0.2156367
28 *45:28 0.08888174
29 *45:29 0.1403193
30 *45:30 0.02300281
31 *45:31 0.09185936
32 *45:26 *88:24 0.06212554
33 *45:18 *88:8 0.06212554
34 *45:16 *88:21 0.07325128
35 *45:24 *135:29 0.07599009
36 *45:25 *135:24 0.07599009
37 *45:16 *151:7 0.04844083
38 *45:24 *151:11 0.04844083

*RES
1 *45:6 *24:Q 1.0
2 *45:7 *45:8 1.0
3 *45:9 *45:10 1.0
4 *45:11 *45:12 1.0
5 *45:13 *45:14 1.0
6 *45:15 *45:16 0.5
7 *45:17 *45:18 0.5
8 *45:14 *45:19 0.095
9 *45:14 *45:20 0.133
10 *45:20 *45:19 0.01733334
11 *45:19 *46:A1 0.1004286
12 *48:A *45:8 0.155353
13 *45:22 *47:A2 0.09891751
14 *47:A2 *45:21 0.06365979
15 *45:10 *45:22 0.318
16 *45:12 *49:A2 0.193353
17 *45:13 *45:23 0.04750001
18 *45:23 *45:16 1.186263
19 *45:7 *45:24 0.7217909
20 *45:9 *45:25 0.02738095
21 *45:25 *45:24 4.976966
22 *45:24 *45:16 6.143651
23 *45:18 *45:26 6.417956
24 *45:26 *45:27 2.344863
25 *45:27 *45:28 0.2070218
26 *45:27 *45:29 5.601725
27 *45:29 *45:30 0.4426362
28 *45:11 *45:31 0.02738095
29 *45:31 *45:28 2.806958
30 *45:30 *45:6 0.0475
31 *45:15 *45:17 3.436322

*END

*D_NET *50 1.194794

*CONN
*I *25:D I *L 496.4084 *C 15.823 19.081
*I *51:Y O *L 0.0 *D AO21X1_RVT *C 6.368 15.32
*N *50:3 *C 6.52 16.4
*N *50:4 *C 6.52 16.4
*N *50:5 *C 6.52 18.68
*N *50:6 *C 6.52 18.68
*N *50:7 *C 15.64 18.68
*N *50:8 *C 15.64 18.68
*N *50:9 *C 15.64 18.984
*N *50:10 *C 15.64 18.984
*N *50:11 *C 6.5 16.273
*N *50:12 *C 6.52 16.446
*N *50:13 *C 15.64 18.938

*CAP
1 *25:D 0.0188133
2 *51:Y 0.006913595
3 *50:3 0.01374917
4 *50:4 0.00712238
5 *50:5 0.2920171
6 *50:6 0.06420445
7 *50:7 0.2920171
8 *50:8 0.01513272
9 *50:9 0.01043236
10 *50:10 0.0188133
11 *50:11 0.01403597
12 *50:12 0.07795364
13 *50:13 0.02556508
14 *50:12 *126:8 0.1166885
15 *50:7 *180:3 0.1106677
16 *50:5 *180:3 0.1106677

*RES
1 *50:3 *50:4 1.0
2 *50:5 *50:6 0.5
3 *50:7 *50:8 0.5
4 *50:9 *50:10 1.0
5 *51:Y *50:11 0.2116667
6 *50:11 *50:4 0.1009375
7 *50:10 *25:D 0.2352942
8 *50:3 *50:12 0.02738095
9 *50:12 *50:6 3.895183
10 *50:13 *50:9 0.02738095
11 *50:8 *50:13 0.3907956
12 *50:5 *50:7 16.1875

*END

*D_NET *52 2.867602

*CONN
*I *25:Q O *L 0.0 *D DFFX1_RVT *C 19.121 19.44
*I *53:A3 I *L 393.9097 *C 8.8 17.312
*I *54:A1 I *L 503.5117 *C 9.535 12.448
*I *55:A I *L 688.1503 *C 10.318 10.925
*I *49:A1 I *L 496.1498 *C 11.612 17.722
*I *56:A1 I *L 543.9185 *C 8.8 14.12
*N *52:7 *C 9.535 12.448
*N *52:8 *C 10.624 10.928
*N *52:9 *C 10.624 10.928
*N *52:10 *C 10.624 13.208
*N *52:11 *C 10.624 13.208
*N *52:12 *C 9.56 13.208
*N *52:13 *C 9.56 13.208
*N *52:14 *C 8.8 14.12
*N *52:15 *C 19.121 19.44
*N *52:16 *C 18.984 16.856
*N *52:17 *C 18.984 16.856
*N *52:18 *C 9.256 17.312
*N *52:19 *C 9.256 17.312
*N *52:20 *C 9.408 16.856
*N *52:21 *C 9.408 16.856
*N *52:22 *C 11.232 17.16
*N *52:23 *C 11.232 17.16
*N *52:24 *C 11.232 17.464
*N *52:25 *C 11.232 17.464
*N *52:26 *C 9.246 17.312
*N *52:27 *C 10.318 10.928
*N *52:28 *C 11.232 17.678
*N *52:29 *C 8.8 14.166
*N *52:30 *C 8.8 15.64
*N *52:31 *C 9.408 15.64
*N *52:32 *C 9.408 14.728
*N *52:33 *C 9.56 14.728
*N *52:34 *C 9.256 17.266
*N *52:35 *C 9.256 17.008
*N *52:36 *C 9.408 17.008
*N *52:37 *C 9.408 12.449
*N *52:38 *C 9.474 12.448
*N *52:39 *C 9.408 13.208
*N *52:40 *C 10.624 10.974
*N *52:41 *C 11.232 17.418
*N *52:42 *C 18.984 19.44
*N *52:43 *C 19.075 19.44
*N *52:44 *C 11.232 16.856

*CAP
1 *25:Q 0.0
2 *53:A3 0.04403054
3 *54:A1 0.0
4 *55:A 0.009005933
5 *49:A1 0.01711969
6 *56:A1 0.0
7 *52:7 0.01345218
8 *52:8 0.01052168
9 *52:9 0.02321414
10 *52:10 0.0264401
11 *52:11 0.1161215
12 *52:12 0.0264401
13 *52:13 0.0679306
14 *52:14 0.01755431
15 *52:15 0.01262242
16 *52:16 0.3591579
17 *52:17 0.1171348
18 *52:18 0.01213201
19 *52:19 0.008099067
20 *52:20 0.06499426
21 *52:21 0.06122501
22 *52:22 0.02094433
23 *52:23 0.0005179979
24 *52:24 0.01618572
25 *52:25 0.01405152
26 *52:26 0.05212961
27 *52:27 0.03222007
28 *52:28 0.0311712
29 *52:29 0.07311489
30 *52:30 0.09558258
31 *52:31 0.1277037
32 *52:32 0.06429022
33 *52:33 0.09353094
34 *52:34 0.01765309
35 *52:35 0.01871702
36 *52:36 0.01854772
37 *52:37 0.04367942
38 *52:38 0.01875674
39 *52:39 0.04525631
40 *52:40 0.1266432
41 *52:41 0.01670372
42 *52:42 0.1204037
43 *52:43 0.01589128
44 *52:44 0.4450965
45 *52:44 *92:9 0.02649822
46 *52:20 *92:7 0.02649822
47 *52:36 *92:8 0.003032153
48 *52:21 *92:8 0.01925241
49 *52:31 *92:13 0.0001607492
50 *52:34 *92:8 0.01226434
51 *52:35 *92:8 1e-07
52 *52:35 *92:14 1e-07
53 *52:34 *92:15 1e-07
54 *52:10 *94:8 0.01480081
55 *52:12 *94:8 0.04554132
56 *52:13 *94:7 1e-07
57 *52:30 *94:28 0.05859038
58 *52:29 *94:27 0.05859038
59 *52:17 *121:6 0.01785083
60 *52:17 *121:7 0.01785083
61 *52:41 *155:5 0.02534167
62 *52:23 *155:5 0.02534167

*RES
1 *52:7 *54:A1 1.0
2 *52:8 *52:9 1.0
3 *52:10 *52:11 0.5
4 *52:12 *52:13 0.5
5 *52:14 *56:A1 1.0
6 *52:15 *25:Q 1.0
7 *52:16 *52:17 0.5
8 *52:18 *52:19 1.0
9 *52:20 *52:21 0.5
10 *52:22 *52:23 0.25
11 *52:24 *52:25 1.0
12 *53:A3 *52:26 0.7952539
13 *52:26 *52:19 0.002564102
14 *52:27 *55:A 0.001435355
15 *52:27 *52:9 0.4259341
16 *52:25 *52:28 0.3466312
17 *52:28 *49:A1 0.3442857
18 *52:14 *52:29 0.02738095
19 *52:29 *52:30 2.539263
20 *52:30 *52:31 0.9941481
21 *52:32 *52:33 0.2435387
22 *52:34 *52:18 0.02738095
23 *52:35 *52:36 0.2138528
24 *52:35 *52:34 0.3705045
25 *52:37 *52:38 0.1539655
26 *52:38 *52:7 0.03388889
27 *52:37 *52:39 1.262114
28 *52:39 *52:13 0.1865124
29 *52:32 *52:31 1.528572
30 *52:31 *52:21 2.073679
31 *52:21 *52:36 0.1869842
32 *52:13 *52:33 2.616095
33 *52:8 *52:40 0.02738095
34 *52:40 *52:11 3.895184
35 *52:41 *52:24 0.02738095
36 *52:23 *52:41 0.3952321
37 *52:17 *52:42 4.516333
38 *52:42 *52:43 0.08602943
39 *52:43 *52:15 0.02555556
40 *52:20 *52:44 3.16288
41 *52:44 *52:16 13.74319
42 *52:12 *52:10 1.813496
43 *52:44 *52:22 0.4331099

*END

*D_NET *57 0.9477345

*CONN
*I *26:D I *L 496.4084 *C 14.607 5.705
*I *58:Y O *L 0.0 *D AO22X1_RVT *C 14.12 11.979
*N *57:3 *C 14.272 12.752
*N *57:4 *C 14.272 12.752
*N *57:5 *C 14.272 5.608
*N *57:6 *C 14.272 5.608
*N *57:7 *C 14.257 12.876
*N *57:8 *C 14.272 5.654
*N *57:9 *C 14.272 12.706

*CAP
1 *26:D 0.02623993
2 *58:Y 0.009761928
3 *57:3 0.01315745
4 *57:4 0.008123045
5 *57:5 0.01022066
6 *57:6 0.02623993
7 *57:7 0.01788497
8 *57:8 0.2676026
9 *57:9 0.2705393
10 *57:9 *74:14 0.02840668
11 *57:9 *74:25 0.0305835
12 *57:9 *74:11 0.002176819
13 *57:9 *159:10 0.1183987
14 *57:8 *159:9 0.1183987
15 *57:9 *181:27 1e-07
16 *57:9 *181:39 1e-07

*RES
1 *57:3 *57:4 1.0
2 *57:5 *57:6 1.0
3 *58:Y *57:7 0.2472727
4 *57:6 *26:D 0.4141177
5 *57:4 *57:7 0.1080625
6 *57:5 *57:8 0.02738095
7 *57:9 *57:3 0.02738095
8 *57:8 *57:9 12.49405

*END

*D_NET *59 2.456495

*CONN
*I *26:Q O *L 0.0 *D DFFX1_RVT *C 17.919 6.089
*I *29:A2 I *L 405.9669 *C 21.869 17.616
*I *60:A I *L 518.4735 *C 17.617 9.116
*I *61:A3 I *L 391.832 *C 14.849 9.239
*I *62:A3 I *L 492.0692 *C 19.15 7.265
*I *63:A1 I *L 503.5117 *C 22.151 12.448
*I *64:A2 I *L 511.8402 *C 22.305 15.944
*I *65:A1 I *L 481.3457 *C 21.416 7.616
*N *59:9 *C 22.151 12.448
*N *59:10 *C 21.416 7.616
*N *59:11 *C 22.176 16.4
*N *59:12 *C 22.176 16.4
*N *59:13 *C 17.464 7.736
*N *59:14 *C 17.464 7.736
*N *59:15 *C 19.15 7.736
*N *59:16 *C 19.15 7.736
*N *59:17 *C 19.15 7.265
*N *59:18 *C 22.176 17.616
*N *59:19 *C 22.176 17.616
*N *59:20 *C 21.416 7.736
*N *59:21 *C 21.416 7.736
*N *59:22 *C 17.919 6.089
*N *59:23 *C 17.464 8.8
*N *59:24 *C 17.464 8.8
*N *59:25 *C 14.728 7.736
*N *59:26 *C 14.728 7.736
*N *59:27 *C 14.728 9.251
*N *59:28 *C 14.728 9.251
*N *59:29 *C 14.903 9.296
*N *59:30 *C 17.464 9.049
*N *59:31 *C 22.191 16.255
*N *59:32 *C 22.343 16.255
*N *59:33 *C 14.728 9.205
*N *59:34 *C 17.464 8.754
*N *59:35 *C 17.464 6.064
*N *59:36 *C 17.872 6.064
*N *59:37 *C 21.416 12.448
*N *59:38 *C 21.872 12.448
*N *59:39 *C 22.105 12.448
*N *59:40 *C 21.872 14.272
*N *59:41 *C 22.176 14.272
*N *59:42 *C 22.176 16.354
*N *59:43 *C 22.176 16.446
*N *59:44 *C 22.176 17.57

*CAP
1 *26:Q 0.0
2 *29:A2 0.03953715
3 *60:A 0.00763854
4 *61:A3 0.05692613
5 *62:A3 0.0
6 *63:A1 0.0
7 *64:A2 0.01301412
8 *65:A1 0.0
9 *59:9 0.01242398
10 *59:10 0.00600816
11 *59:11 0.01446566
12 *59:12 0.01148779
13 *59:13 0.1860674
14 *59:14 0.08605083
15 *59:15 0.1455366
16 *59:16 0.02381351
17 *59:17 0.02381351
18 *59:18 0.01168899
19 *59:19 0.03953715
20 *59:20 0.07571372
21 *59:21 0.2143716
22 *59:22 0.00458754
23 *59:23 0.01142698
24 *59:24 0.0155581
25 *59:25 0.1162445
26 *59:26 0.07027346
27 *59:27 0.01244627
28 *59:28 0.02018734
29 *59:29 0.03673878
30 *59:30 0.02319664
31 *59:31 0.02064216
32 *59:32 0.02216849
33 *59:33 0.08271973
34 *59:34 0.02378454
35 *59:35 0.0920747
36 *59:36 0.02296897
37 *59:37 0.2302293
38 *59:38 0.1063139
39 *59:39 0.02432762
40 *59:40 0.08962162
41 *59:41 0.1071804
42 *59:42 0.09320839
43 *59:43 0.06635652
44 *59:44 0.06668508
45 *59:33 *159:9 1e-07
46 *59:26 *159:9 1e-07
47 *59:20 *171:7 0.02927674
48 *59:15 *171:5 0.02927674
49 *59:34 *162:12 0.03545247
50 *59:14 *162:11 0.03545247

*RES
1 *59:9 *63:A1 1.0
2 *59:10 *65:A1 1.0
3 *59:11 *59:12 1.0
4 *59:13 *59:14 0.5
5 *59:15 *59:16 0.5
6 *59:17 *62:A3 1.0
7 *59:18 *59:19 1.0
8 *59:20 *59:21 0.25
9 *59:22 *26:Q 1.0
10 *59:23 *59:24 1.0
11 *59:25 *59:26 0.5
12 *59:27 *59:28 1.0
13 *59:28 *61:A3 0.1956547
14 *61:A3 *59:29 0.02
15 *59:24 *59:30 0.4115417
16 *59:30 *60:A 0.194
17 *29:A2 *59:19 0.4367886
18 *59:31 *59:12 0.17575
19 *59:31 *59:32 0.1638001
20 *64:A2 *59:32 0.29625
21 *59:33 *59:27 0.02738095
22 *59:26 *59:33 2.53024
23 *59:34 *59:23 0.02738095
24 *59:35 *59:36 0.6456446
25 *59:36 *59:22 0.0475
26 *59:35 *59:14 2.887362
27 *59:14 *59:34 1.723071
28 *59:17 *59:16 0.7530341
29 *59:10 *59:21 0.03333334
30 *59:21 *59:37 8.31765
31 *59:37 *59:38 0.7200709
32 *59:38 *59:39 0.3354486
33 *59:39 *59:9 0.02555556
34 *59:38 *59:40 3.160122
35 *59:40 *59:41 0.4584127
36 *59:42 *59:11 0.05476191
37 *59:11 *59:43 0.05476191
38 *59:44 *59:18 0.02738095
39 *59:41 *59:42 3.619184
40 *59:43 *59:44 1.914173
41 *59:25 *59:13 4.789614
42 *59:13 *59:15 2.913929
43 *59:15 *59:20 3.946473

*END

*D_NET *66 0.4860851

*CONN
*I *27:D I *L 496.4084 *C 19.775 10.983
*I *67:Y O *L 0.0 *D NAND2X0_RVT *C 20.352 12.051
*N *66:3 *C 19.592 11.08
*N *66:4 *C 19.592 11.08
*N *66:5 *C 19.592 12.448
*N *66:6 *C 19.592 12.448
*N *66:7 *C 19.668 11.11
*N *66:8 *C 20.2 12.448
*N *66:9 *C 20.2 12.6
*N *66:10 *C 19.592 11.126
*N *66:11 *C 19.592 12.402

*CAP
1 *27:D 0.01288926
2 *67:Y 0.007968044
3 *66:3 0.01123381
4 *66:4 0.01761425
5 *66:5 0.01668816
6 *66:6 0.0774944
7 *66:7 0.03050351
8 *66:8 0.08700001
9 *66:9 0.01747366
10 *66:10 0.02410179
11 *66:11 0.02955613
12 *66:11 *38:23 0.0596877
13 *66:11 *127:11 0.04693716
14 *66:10 *127:11 0.04693716

*RES
1 *66:3 *66:4 1.0
2 *66:5 *66:6 1.0
3 *66:4 *66:7 0.05
4 *66:7 *27:D 0.38
5 *66:6 *66:8 1.122891
6 *66:8 *66:9 0.2287525
7 *66:9 *67:Y 0.204
8 *66:3 *66:10 0.02738096
9 *66:11 *66:5 0.02738095
10 *66:10 *66:11 2.184817

*END

*D_NET *68 1.330971

*CONN
*I *27:Q O *L 0.0 *D DFFX1_RVT *C 23.088 10.594
*I *69:A1 I *L 450.5898 *C 19.133 9.448
*I *65:A3 I *L 556.037 *C 22.001 7.273
*I *70:A I *L 688.1503 *C 17.462 10.928
*N *68:5 *C 18.984 11.08
*N *68:6 *C 18.984 11.08
*N *68:7 *C 18.984 9.408
*N *68:8 *C 18.984 9.408
*N *68:9 *C 21.872 11.08
*N *68:10 *C 21.872 11.08
*N *68:11 *C 21.872 7.247
*N *68:12 *C 21.872 7.247
*N *68:13 *C 23.088 10.594
*N *68:14 *C 23.088 11.08
*N *68:15 *C 23.088 11.08
*N *68:16 *C 17.312 11.08
*N *68:17 *C 17.312 11.08
*N *68:18 *C 17.462 10.928
*N *68:19 *C 17.312 10.928
*N *68:20 *C 17.415 10.928
*N *68:21 *C 18.984 9.454
*N *68:22 *C 21.872 7.293
*N *68:23 *C 23.088 10.64

*CAP
1 *27:Q 0.0
2 *69:A1 0.01478914
3 *65:A3 0.00950324
4 *70:A 0.0
5 *68:5 0.1444351
6 *68:6 0.0392325
7 *68:7 0.0145907
8 *68:8 0.01478914
9 *68:9 0.1756029
10 *68:10 0.1741481
11 *68:11 0.01091179
12 *68:12 0.00950324
13 *68:13 0.01255385
14 *68:14 0.05360327
15 *68:15 0.01242449
16 *68:16 0.02243546
17 *68:17 0.01715751
18 *68:18 0.006711372
19 *68:19 0.02174417
20 *68:20 0.01129802
21 *68:21 0.0538232
22 *68:22 0.1850599
23 *68:23 0.02497834
24 *68:6 *77:8 0.07190827
25 *68:21 *77:31 0.07190827
26 *68:5 *127:10 0.05653535
27 *68:16 *127:16 0.05653535
28 *68:15 *173:15 0.0209025
29 *68:23 *173:15 0.0209025
30 *68:13 *173:15 0.002983675

*RES
1 *68:5 *68:6 0.5
2 *68:7 *68:8 1.0
3 *68:9 *68:10 0.5
4 *65:A3 *68:12 0.1741667
5 *68:11 *68:12 1.0
6 *68:13 *27:Q 1.0
7 *68:14 *68:15 0.5
8 *68:16 *68:17 0.5
9 *68:18 *70:A 1.0
10 *68:8 *69:A1 0.3211
11 *68:19 *68:17 0.2191949
12 *68:19 *68:20 0.1053026
13 *68:20 *68:18 0.01424243
14 *68:7 *68:21 0.02738095
15 *68:21 *68:6 2.806844
16 *68:11 *68:22 0.02738095
17 *68:22 *68:10 6.663932
18 *68:13 *68:23 0.02738095
19 *68:23 *68:15 0.7098523
20 *68:16 *68:5 2.89194
21 *68:5 *68:9 5.059045
22 *68:9 *68:14 2.079793

*END

*D_NET *71 1.105479

*CONN
*I *72:Y O *L 0.0 *D AND3X1_RVT *C 13.36 10.508
*I *73:A I *L 508.841 *C 6.52 12.448
*I *56:A3 I *L 497.9178 *C 9.13 14.12
*N *71:4 *C 9.13 14.12
*N *71:5 *C 9.13 12.296
*N *71:6 *C 9.13 12.296
*N *71:7 *C 6.52 12.448
*N *71:8 *C 13.056 10.928
*N *71:9 *C 13.056 10.928
*N *71:10 *C 13.056 12.296
*N *71:11 *C 13.056 12.296
*N *71:12 *C 6.672 12.296
*N *71:13 *C 6.672 12.296
*N *71:14 *C 6.567 12.448
*N *71:15 *C 6.672 12.448
*N *71:16 *C 13.056 10.974

*CAP
1 *72:Y 0.0124929
2 *73:A 0.0
3 *56:A3 0.0
4 *71:4 0.1073258
5 *71:5 0.2823489
6 *71:6 0.1073258
7 *71:7 0.005644549
8 *71:8 0.01444499
9 *71:9 0.0124929
10 *71:10 0.1717365
11 *71:11 0.0359477
12 *71:12 0.1106124
13 *71:13 0.01413264
14 *71:14 0.01512452
15 *71:15 0.02361261
16 *71:16 0.05039269
17 *71:11 *156:14 0.07092183
18 *71:16 *156:19 0.07092183

*RES
1 *71:4 *56:A3 1.0
2 *71:5 *71:6 0.5
3 *71:7 *73:A 1.0
4 *71:8 *71:9 1.0
5 *71:10 *71:11 0.5
6 *71:12 *71:13 0.5
7 *72:Y *71:9 0.08881579
8 *71:7 *71:14 0.01424243
9 *71:14 *71:15 0.1439315
10 *71:13 *71:15 0.1700953
11 *71:6 *71:4 3.155978
12 *71:8 *71:16 0.02738095
13 *71:16 *71:11 2.27029
14 *71:12 *71:5 4.290332
15 *71:5 *71:10 6.913465

*END

*D_NET *74 1.415463

*CONN
*I *72:A2 I *L 440.145 *C 13.968 10.583
*I *75:A1 I *L 526.317 *C 11.84 14.08